(PID.TID 0009.0001) ** WARNING ** INI_MODEL_IO: use tiled-files to write sections (for OBCS)
