(PID.TID 0010.0001) ** WARNING ** INI_MODEL_IO: use tiled-files to write sections (for OBCS)
