(PID.TID 0007.0001) ** WARNING ** INI_MODEL_IO: use tiled-files to write sections (for OBCS)
