(PID.TID 0003.0001) ** WARNING ** INI_MODEL_IO: use tiled-files to write sections (for OBCS)
