(PID.TID 0000.0001) 
(PID.TID 0000.0001) // ======================================================
(PID.TID 0000.0001) //                      MITgcm UV
(PID.TID 0000.0001) //                      =========
(PID.TID 0000.0001) // ======================================================
(PID.TID 0000.0001) // execution environment starting up...
(PID.TID 0000.0001) 
(PID.TID 0000.0001) // MITgcmUV version:  checkpoint67v
(PID.TID 0000.0001) // Build user:        bgetraer
(PID.TID 0000.0001) // Build host:        totten
(PID.TID 0000.0001) // Build date:        Wed Jul 26 11:53:30 AM EDT 2023
(PID.TID 0000.0001) 
(PID.TID 0000.0001) // =======================================================
(PID.TID 0000.0001) // Execution Environment parameter file "eedata"
(PID.TID 0000.0001) // =======================================================
(PID.TID 0000.0001) ># Example "eedata" file
(PID.TID 0000.0001) ># Lines beginning "#" are comments
(PID.TID 0000.0001) ># nTx - No. threads per process in X
(PID.TID 0000.0001) ># nTy - No. threads per process in Y
(PID.TID 0000.0001) > &EEPARMS
(PID.TID 0000.0001) > useCoupler=.FALSE.,
(PID.TID 0000.0001) > debugMode=.FALSE.,
(PID.TID 0000.0001) > /
(PID.TID 0000.0001) ># Note: Some systems use & as the
(PID.TID 0000.0001) ># namelist terminator. Other systems
(PID.TID 0000.0001) ># use a / character (as shown here).
(PID.TID 0000.0001) 
(PID.TID 0000.0001) // =======================================================
(PID.TID 0000.0001) // Computational Grid Specification ( see files "SIZE.h" )
(PID.TID 0000.0001) //                                  ( and "eedata"       )
(PID.TID 0000.0001) // =======================================================
(PID.TID 0000.0001)      nPx =    2 ; /* No. processes in X */
(PID.TID 0000.0001)      nPy =    6 ; /* No. processes in Y */
(PID.TID 0000.0001)      nSx =    1 ; /* No. tiles in X per process */
(PID.TID 0000.0001)      nSy =    1 ; /* No. tiles in Y per process */
(PID.TID 0000.0001)      sNx =   31 ; /* Tile size in X */
(PID.TID 0000.0001)      sNy =   17 ; /* Tile size in Y */
(PID.TID 0000.0001)      OLx =    3 ; /* Tile overlap distance in X */
(PID.TID 0000.0001)      OLy =    3 ; /* Tile overlap distance in Y */
(PID.TID 0000.0001)      nTx =    1 ; /* No. threads in X per process */
(PID.TID 0000.0001)      nTy =    1 ; /* No. threads in Y per process */
(PID.TID 0000.0001)       Nr =   55 ; /* No. levels in the vertical   */
(PID.TID 0000.0001)       Nx =   62 ; /* Total domain size in X ( = nPx*nSx*sNx ) */
(PID.TID 0000.0001)       Ny =  102 ; /* Total domain size in Y ( = nPy*nSy*sNy ) */
(PID.TID 0000.0001)   nTiles =    1 ; /* Total no. tiles per process ( = nSx*nSy ) */
(PID.TID 0000.0001)   nProcs =   12 ; /* Total no. processes ( = nPx*nPy ) */
(PID.TID 0000.0001) nThreads =    1 ; /* Total no. threads per process ( = nTx*nTy ) */
(PID.TID 0000.0001) usingMPI =    T ; /* Flag used to control whether MPI is in use */
(PID.TID 0000.0001)                   /*  note: To execute a program with MPI calls */
(PID.TID 0000.0001)                   /*  it must be launched appropriately e.g     */
(PID.TID 0000.0001)                   /*  "mpirun -np 64 ......"                    */
(PID.TID 0000.0001) useCoupler=   F ; /* Flag used to control communications with   */
(PID.TID 0000.0001)                   /*  other model components, through a coupler */
(PID.TID 0000.0001) useNest2W_parent =    F ;/* Control 2-W Nesting comm */
(PID.TID 0000.0001) useNest2W_child  =    F ;/* Control 2-W Nesting comm */
(PID.TID 0000.0001) debugMode =    F ; /* print debug msg. (sequence of S/R calls)  */
(PID.TID 0000.0001) printMapIncludesZeros=    F ; /* print zeros in Std.Output maps */
(PID.TID 0000.0001) maxLengthPrt1D=   65 /* maxLength of 1D array printed to StdOut */
(PID.TID 0000.0001) 
(PID.TID 0000.0001) ======= Starting MPI parallel Run =========
(PID.TID 0000.0001)  My Processor Name (len:  6 ) = totten
(PID.TID 0000.0001)  Located at (  0,  0) on processor grid (0:  1,0:  5)
(PID.TID 0000.0001)  Origin at  (     1,     1) on global grid (1:    62,1:   102)
(PID.TID 0000.0001)  North neighbor = processor 0001
(PID.TID 0000.0001)  South neighbor = processor 0005
(PID.TID 0000.0001)   East neighbor = processor 0006
(PID.TID 0000.0001)   West neighbor = processor 0006
(PID.TID 0000.0001) // ======================================================
(PID.TID 0000.0001) // Mapping of tiles to threads
(PID.TID 0000.0001) // ======================================================
(PID.TID 0000.0001) // -o- Thread   1, tiles (   1:   1,   1:   1)
(PID.TID 0000.0001) 
(PID.TID 0000.0001) // ======================================================
(PID.TID 0000.0001) // Tile <-> Tile connectvity table
(PID.TID 0000.0001) // ======================================================
(PID.TID 0000.0001) // Tile number: 000001 (process no. = 000000)
(PID.TID 0000.0001) //        WEST: Tile = 000002, Process = 000006, Comm = messages
(PID.TID 0000.0001) //                bi = 000001, bj = 000001
(PID.TID 0000.0001) //        EAST: Tile = 000002, Process = 000006, Comm = messages
(PID.TID 0000.0001) //                bi = 000001, bj = 000001
(PID.TID 0000.0001) //       SOUTH: Tile = 000011, Process = 000005, Comm = messages
(PID.TID 0000.0001) //                bi = 000001, bj = 000001
(PID.TID 0000.0001) //       NORTH: Tile = 000003, Process = 000001, Comm = messages
(PID.TID 0000.0001) //                bi = 000001, bj = 000001
(PID.TID 0000.0001) 
(PID.TID 0000.0001)  INI_PARMS: opening model parameter file "data"
(PID.TID 0000.0001)  OPEN_COPY_DATA_FILE: opening file data
(PID.TID 0000.0001) // =======================================================
(PID.TID 0000.0001) // Parameter file "data"
(PID.TID 0000.0001) // =======================================================
(PID.TID 0000.0001) ># ====================
(PID.TID 0000.0001) ># | Model parameters |
(PID.TID 0000.0001) ># ====================
(PID.TID 0000.0001) >#
(PID.TID 0000.0001) ># Continuous equation parameters
(PID.TID 0000.0001) > &PARM01
(PID.TID 0000.0001) ># momstepping=.FALSE.,
(PID.TID 0000.0001) ># tempstepping=.FALSE.,
(PID.TID 0000.0001) ># saltstepping=.FALSE.,
(PID.TID 0000.0001) ># BENJY: these should be of form Xref=nz*X_0. Why is nz 40 instead of 55?
(PID.TID 0000.0001) ># reference potential Temperature for each layer (deg C)
(PID.TID 0000.0001) > Tref = 40*-1.9,
(PID.TID 0000.0001) ># reference Salinity for each layer (ppt)
(PID.TID 0000.0001) > Sref = 40*34.4,
(PID.TID 0000.0001) > viscAr=1.E-3,
(PID.TID 0000.0001) > viscAh=10.0,
(PID.TID 0000.0001) > no_slip_sides=.FALSE.,
(PID.TID 0000.0001) > no_slip_bottom=.FALSE.,
(PID.TID 0000.0001) > diffKhT= 10.0,
(PID.TID 0000.0001) > diffKrT=5.E-5,
(PID.TID 0000.0001) > diffKhS= 10.0,
(PID.TID 0000.0001) > diffKrS=5.E-5,
(PID.TID 0000.0001) > bottomDragQuadratic=2.5E-3,
(PID.TID 0000.0001) > staggerTimestep = .true.,
(PID.TID 0000.0001) > tempAdvScheme=33,
(PID.TID 0000.0001) > saltAdvScheme=33,
(PID.TID 0000.0001) ># vectorInvariantMomentum = .true.,
(PID.TID 0000.0001) ># momImplVertAdv=.true.,
(PID.TID 0000.0001) ># tempImplVertAdv=.true.,
(PID.TID 0000.0001) ># saltImplVertAdv=.true.,
(PID.TID 0000.0001) > eosType='JMD95Z',
(PID.TID 0000.0001) >#tAlpha = 2.E-4,
(PID.TID 0000.0001) >#sBeta  = 7.4E-4,
(PID.TID 0000.0001) > HeatCapacity_cp = 3974.0,
(PID.TID 0000.0001) > rhoConst=1000.,
(PID.TID 0000.0001) > rhoNil=1000.,
(PID.TID 0000.0001) > gravity=9.81,
(PID.TID 0000.0001) > gBaro=9.81,
(PID.TID 0000.0001) > rigidLid=.FALSE.,
(PID.TID 0000.0001) > implicitFreeSurface=.TRUE.,
(PID.TID 0000.0001) > useRealFreshWaterFlux = .true.,
(PID.TID 0000.0001) > exactConserv=.TRUE.,
(PID.TID 0000.0001) > nonlinFreeSurf=4,
(PID.TID 0000.0001) > hFacInf=0.2,
(PID.TID 0000.0001) > hFacSup=2.0,
(PID.TID 0000.0001) > hFacMin=0.2,
(PID.TID 0000.0001) > readBinaryPrec=64,
(PID.TID 0000.0001) > debuglevel = 1,
(PID.TID 0000.0001) > selectCoriMap = 0,
(PID.TID 0000.0001) > f0 = -1.e-4,
(PID.TID 0000.0001) > useSingleCpuIO=.TRUE.,
(PID.TID 0000.0001) > globalFiles=.TRUE.,
(PID.TID 0000.0001) > useCoriolis=.TRUE.,
(PID.TID 0000.0001) > /
(PID.TID 0000.0001) >
(PID.TID 0000.0001) ># Elliptic solver parameters
(PID.TID 0000.0001) > &PARM02
(PID.TID 0000.0001) > cg2dMaxIters=1000,
(PID.TID 0000.0001) > cg2dTargetResidual=1.E-11,
(PID.TID 0000.0001) ># cg2dMinColumnEps = 1.
(PID.TID 0000.0001) ># pReleaseVisc = 1.
(PID.TID 0000.0001) > cg3dMaxIters=400,
(PID.TID 0000.0001) > cg3dTargetResidual=1.E-13,
(PID.TID 0000.0001) > /
(PID.TID 0000.0001) >
(PID.TID 0000.0001) >#Time stepping parameters
(PID.TID 0000.0001) > &PARM03
(PID.TID 0000.0001) > niter0 = 864
(PID.TID 0000.0001) > deltaT=100.0,
(PID.TID 0000.0001) > ntimesteps = 865
(PID.TID 0000.0001) > cAdjFreq = -1.,
(PID.TID 0000.0001) > pChkptFreq = 86400
(PID.TID 0000.0001) > chkptFreq=864000.0,
(PID.TID 0000.0001) > dumpFreq=864000,
(PID.TID 0000.0001) ># pickupsuff='ckptA'
(PID.TID 0000.0001) > monitorFreq=100.0,
(PID.TID 0000.0001) > monitorSelect=1,
(PID.TID 0000.0001) > /
(PID.TID 0000.0001) >
(PID.TID 0000.0001) ># Gridding parameters
(PID.TID 0000.0001) > &PARM04
(PID.TID 0000.0001) > usingCartesianGrid=.TRUE.,
(PID.TID 0000.0001) > delX=62*1000,
(PID.TID 0000.0001) > delY=102*1000,
(PID.TID 0000.0001) > delR=55*20,
(PID.TID 0000.0001) > xgOrigin=-1000,
(PID.TID 0000.0001) > ygOrigin=-2000,
(PID.TID 0000.0001) > /
(PID.TID 0000.0001) >
(PID.TID 0000.0001) ># Input datasets
(PID.TID 0000.0001) > &PARM05
(PID.TID 0000.0001) > bathyFile='BATHY60.box',
(PID.TID 0000.0001) > hydrogThetaFile='theta.init',	
(PID.TID 0000.0001) > hydrogSaltFile='salt.init',
(PID.TID 0000.0001) > pSurfInitFile='etainit.round.bin',
(PID.TID 0000.0001) > /
(PID.TID 0000.0001) 
(PID.TID 0000.0001)  INI_PARMS ; starts to read PARM01
(PID.TID 0000.0001)  INI_PARMS ; read PARM01 : OK
(PID.TID 0000.0001)  INI_PARMS ; starts to read PARM02
(PID.TID 0000.0001)  INI_PARMS ; read PARM02 : OK
(PID.TID 0000.0001)  INI_PARMS ; starts to read PARM03
(PID.TID 0000.0001)  INI_PARMS ; read PARM03 : OK
(PID.TID 0000.0001)  INI_PARMS ; starts to read PARM04
(PID.TID 0000.0001)  INI_PARMS ; read PARM04 : OK
(PID.TID 0000.0001)  INI_PARMS ; starts to read PARM05
(PID.TID 0000.0001)  INI_PARMS ; read PARM05 : OK
(PID.TID 0000.0001)  INI_PARMS: finished reading file "data"
(PID.TID 0000.0001)  PACKAGES_BOOT: opening data.pkg
(PID.TID 0000.0001)  OPEN_COPY_DATA_FILE: opening file data.pkg
(PID.TID 0000.0001) // =======================================================
(PID.TID 0000.0001) // Parameter file "data.pkg"
(PID.TID 0000.0001) // =======================================================
(PID.TID 0000.0001) ># Packages (lines beginning "#" are comments)
(PID.TID 0000.0001) > &PACKAGES
(PID.TID 0000.0001) > useOBCS=.TRUE.,
(PID.TID 0000.0001) > useShelfIce=.TRUE.,
(PID.TID 0000.0001) > useDiagnostics = .TRUE.,
(PID.TID 0000.0001) > /
(PID.TID 0000.0001) 
(PID.TID 0000.0001)  PACKAGES_BOOT: finished reading data.pkg
(PID.TID 0000.0001)  PACKAGES_BOOT: On/Off package Summary
 --------  pkgs with a standard "usePKG" On/Off switch in "data.pkg":  --------
 pkg/obcs                 compiled   and   used ( useOBCS                  = T )
 pkg/shelfice             compiled   and   used ( useShelfIce              = T )
 pkg/diagnostics          compiled   and   used ( useDiagnostics           = T )
 -------- pkgs without standard "usePKG" On/Off switch in "data.pkg":  --------
 pkg/generic_advdiff      compiled   and   used ( useGAD                   = T )
 pkg/mom_common           compiled   and   used ( momStepping              = T )
 pkg/mom_vecinv           compiled but not used ( +vectorInvariantMomentum = F )
 pkg/mom_fluxform         compiled   and   used ( & not vectorInvariantMom = T )
 pkg/monitor              compiled   and   used ( monitorFreq > 0.         = T )
 pkg/debug                compiled but not used ( debugMode                = F )
 pkg/rw                   compiled   and   used
 pkg/mdsio                compiled   and   used
(PID.TID 0000.0001)  PACKAGES_BOOT: End of package Summary
(PID.TID 0000.0001) 
(PID.TID 0000.0001)  OBCS_READPARMS: opening data.obcs
(PID.TID 0000.0001)  OPEN_COPY_DATA_FILE: opening file data.obcs
(PID.TID 0000.0001) // =======================================================
(PID.TID 0000.0001) // Parameter file "data.obcs"
(PID.TID 0000.0001) // =======================================================
(PID.TID 0000.0001) ># Open-boundaries
(PID.TID 0000.0001) > &OBCS_PARM01
(PID.TID 0000.0001) > OB_Jnorth=62*102,
(PID.TID 0000.0001) > useOBCSprescribe=.true.,
(PID.TID 0000.0001) > useOBCSsponge=.true.,
(PID.TID 0000.0001) > useLinearSponge = .TRUE.,
(PID.TID 0000.0001) ># OBWuFile='uvel.obw',
(PID.TID 0000.0001) ># OBNvFile='vvel.obw',
(PID.TID 0000.0001) > OBNtFile='theta.obw',
(PID.TID 0000.0001) > OBNsFile='salt.obw',
(PID.TID 0000.0001) > useOrlanskiNorth=.FALSE.,
(PID.TID 0000.0001) > useOBCSbalance=.TRUE.,
(PID.TID 0000.0001) > OBCS_balanceFacN=1.,
(PID.TID 0000.0001) > /
(PID.TID 0000.0001) >
(PID.TID 0000.0001) ># Orlanski parameters
(PID.TID 0000.0001) > &OBCS_PARM02
(PID.TID 0000.0001) >#Cmax=0.45,
(PID.TID 0000.0001) >#cVelTimeScale=1000.,
(PID.TID 0000.0001) > /
(PID.TID 0000.0001) >
(PID.TID 0000.0001) ># Sponge layer parameters
(PID.TID 0000.0001) > &OBCS_PARM03
(PID.TID 0000.0001) > spongeThickness = 5,
(PID.TID 0000.0001) > Vrelaxobcsbound = 864000.,
(PID.TID 0000.0001) > Urelaxobcsbound = 864000.,
(PID.TID 0000.0001) > /
(PID.TID 0000.0001) 
(PID.TID 0000.0001)  OBCS_READPARMS: finished reading data.obcs
(PID.TID 0000.0001)  OB_indexUnset = /* unset OB index value (i.e. no OB) */
(PID.TID 0000.0001)                       0
(PID.TID 0000.0001)     ;
(PID.TID 0000.0001)  Northern OB global indices : OB_Jnorth =
(PID.TID 0000.0001)    62 @      102                            /* I =  1: 62 */
(PID.TID 0000.0001)  Southern OB global indices : OB_Jsouth =
(PID.TID 0000.0001)    62 @        0                            /* I =  1: 62 */
(PID.TID 0000.0001)  Eastern  OB global indices : OB_Ieast =
(PID.TID 0000.0001)   102 @        0                            /* J =  1:102 */
(PID.TID 0000.0001)  Western  OB global indices : OB_Iwest =
(PID.TID 0000.0001)   102 @        0                            /* J =  1:102 */
(PID.TID 0000.0001) 
(PID.TID 0000.0001)  SHELFICE_READPARMS: opening data.shelfice
(PID.TID 0000.0001)  OPEN_COPY_DATA_FILE: opening file data.shelfice
(PID.TID 0000.0001) // =======================================================
(PID.TID 0000.0001) // Parameter file "data.shelfice"
(PID.TID 0000.0001) // =======================================================
(PID.TID 0000.0001) ># ===================================
(PID.TID 0000.0001) ># | Parameters for SHELFICE package |
(PID.TID 0000.0001) ># ===================================
(PID.TID 0000.0001) > &SHELFICE_PARM01
(PID.TID 0000.0001) > SHELFICEwriteState = .true.,
(PID.TID 0000.0001) > SHELFICEconserve = .true.,
(PID.TID 0000.0001) > SHELFICEboundaryLayer = .true.,
(PID.TID 0000.0001) > SHELFICEtopoFile='shelftopo.round.bin',
(PID.TID 0000.0001) > SHI_withBL_realFWflux=.true.
(PID.TID 0000.0001) > SHELFICEmassFile = 'shelficemassinit.bin',
(PID.TID 0000.0001) > SHELFICEMassDynTendFile = 'shelfice_dmdt.bin'
(PID.TID 0000.0001) > SHELFICEuseGammaFrict = .true.,
(PID.TID 0000.0001) > SHELFICEDragQuadratic = 0.0097,
(PID.TID 0000.0001) > shiCdrag = 0.0097,
(PID.TID 0000.0001) > SHELFICEheatTransCoeff = 0.0135,
(PID.TID 0000.0001) > SHELFICEsaltTransCoeff = 0.000265,
(PID.TID 0000.0001) > SHELFICEMassStepping = .true.,
(PID.TID 0000.0001) > SHELFICERemeshFrequency = 3600.0,
(PID.TID 0000.0001) > SHELFICESplitThreshold =1.3,
(PID.TID 0000.0001) > SHELFICEMergeThreshold =0.29,
(PID.TID 0000.0001) > SHELFICE_conserve_ssh = .true.,
(PID.TID 0000.0001) > SHELFICEaddrunoff=.FALSE.
(PID.TID 0000.0001) > SHELFICESubglFluxFile='runoff_flux.bin'
(PID.TID 0000.0001) > /
(PID.TID 0000.0001) 
(PID.TID 0000.0001)  SHELFICE_READPARMS: finished reading data.shelfice
(PID.TID 0000.0001)  DIAGNOSTICS_READPARMS: opening data.diagnostics
(PID.TID 0000.0001)  OPEN_COPY_DATA_FILE: opening file data.diagnostics
(PID.TID 0000.0001) // =======================================================
(PID.TID 0000.0001) // Parameter file "data.diagnostics"
(PID.TID 0000.0001) // =======================================================
(PID.TID 0000.0001) ># Diagnostic Package Choices
(PID.TID 0000.0001) >#-----------------
(PID.TID 0000.0001) ># for each output-stream:
(PID.TID 0000.0001) >#  filename(n) : prefix of the output file name (only 8.c long) for outp.stream n
(PID.TID 0000.0001) >#  frequency(n):< 0 : write snap-shot output every |frequency| seconds
(PID.TID 0000.0001) >#               > 0 : write time-average output every frequency seconds
(PID.TID 0000.0001) >#  timePhase(n)     : write at time = timePhase + multiple of |frequency|
(PID.TID 0000.0001) >#  averagingFreq(n) : frequency (in s) for periodic averaging interval
(PID.TID 0000.0001) >#  averagingPhase(n): phase     (in s) for periodic averaging interval
(PID.TID 0000.0001) >#  repeatCycle(n)   : number of averaging intervals in 1 cycle
(PID.TID 0000.0001) >#  levels(:,n) : list of levels to write to file (Notes: declared as REAL)
(PID.TID 0000.0001) >#                 when this entry is missing, select all common levels of this list
(PID.TID 0000.0001) >#  fields(:,n) : list of diagnostics fields (8.c) (see "available_diagnostics.log"
(PID.TID 0000.0001) >#                 file for the list of all available diag. in this particular config)
(PID.TID 0000.0001) >#-----------------
(PID.TID 0000.0001) > &DIAGNOSTICS_LIST
(PID.TID 0000.0001) ># diag_mnc     = .FALSE.,
(PID.TID 0000.0001) ># dumpAtLast   = .TRUE.,
(PID.TID 0000.0001) >  fields(1:6,1) =
(PID.TID 0000.0001) >#       'ETAN    ','oceTAUX ','oceTAUY ',
(PID.TID 0000.0001) >#                 'oceQnet ','oceFWflx','MXLDEPTH',
(PID.TID 0000.0001) >                'SHIfwFlx','SHI_mass','SHIRshel',
(PID.TID 0000.0001) >                 'ETAN    ','SHIuStar','SHIForcT'
(PID.TID 0000.0001) >#                 'SHIuLocM','SHIvLocM','SHIwLocM','SHItLocM','SHIsLocM',
(PID.TID 0000.0001) >#		 'SHItLocB','SHIsLocB'
(PID.TID 0000.0001) >#                'SHIForcT','SHIForcS',
(PID.TID 0000.0001) >#                'surForcT','surForcS','TFLUX   ','SFLUX   ','oceFreez',
(PID.TID 0000.0001) >#                 'TRELAX  ','SRELAX  ',
(PID.TID 0000.0001) >#                'GM_VisbK',
(PID.TID 0000.0001) >#  fields(1,1)='ETAN'
(PID.TID 0000.0001) >   filename(1) = 'surfDiag',
(PID.TID 0000.0001) >   frequency(1) =  86400,
(PID.TID 0000.0001) >   fields(1:5,2) = 'UVEL    ','VVEL    ','WVEL    ',
(PID.TID 0000.0001) >                 'THETA   ','SALT    '
(PID.TID 0000.0001) >   filename(2) = 'dynDiag',
(PID.TID 0000.0001) >  frequency(2) =  2592000.,
(PID.TID 0000.0001) >  fields(1,3) = 'SHIfwFlx'
(PID.TID 0000.0001) >  filename(3) = 'SHICE_fwFluxtave'
(PID.TID 0000.0001) > frequency(3) = 86400
(PID.TID 0000.0001) >  fields(1,4) = 'SHI_mass'
(PID.TID 0000.0001) >  filename(4) = 'SHICE_mass'
(PID.TID 0000.0001) > frequency(4) = -86400
(PID.TID 0000.0001) > timephase(4) = 0
(PID.TID 0000.0001) >#   fields(1:5,3) = 'SI_Uvel ','SI_Vvel ','SI_Thick','SI_hmask','SI_float',
(PID.TID 0000.0001) >#   filename(3) = 'streamice',
(PID.TID 0000.0001) > frequency(3) = 86400
(PID.TID 0000.0001) >#  fields(1,3) = 'EXFpreci','EXFuwind','EXFvwind','EXFtaux ','EXFtauy ',
(PID.TID 0000.0001) >#                'EXFlwdn ','EXFswdn ','EXFatemp','EXFaqh  ','EXFpress',
(PID.TID 0000.0001) >#                'GM_PsiX ','GM_PsiY ',
(PID.TID 0000.0001) >#                'GM_Kwx  ','GM_Kwy  ','GM_Kwz  ',
(PID.TID 0000.0001) >#                'GM_Kux  ','GM_Kvy  ',
(PID.TID 0000.0001) >#                'GM_Kuz  ','GM_Kvz  ',
(PID.TID 0000.0001) >#- disable this output list by commenting out the file name
(PID.TID 0000.0001) >#  filename(3) = 'diagsEXF',
(PID.TID 0000.0001) > frequency(3) = 86400
(PID.TID 0000.0001) >#  fields(1,4) = 'ADVx_TH ','ADVy_TH ','ADVr_TH ',
(PID.TID 0000.0001) >#                'DIFx_TH ','DIFy_TH ','DFrE_TH ',
(PID.TID 0000.0001) >#                'DFrI_TH ',
(PID.TID 0000.0001) >#                'ADVx_SLT',
(PID.TID 0000.0001) >#  filename(4) = 'flxDiag',
(PID.TID 0000.0001) > frequency(4) = -86400
(PID.TID 0000.0001) > /
(PID.TID 0000.0001) >
(PID.TID 0000.0001) ># Parameter for Diagnostics of per level statistics:
(PID.TID 0000.0001) >#-----------------
(PID.TID 0000.0001) ># for each output-stream:
(PID.TID 0000.0001) >#  stat_fname(n) : prefix of the output file name (only 8.c long) for outp.stream n
(PID.TID 0000.0001) >#  stat_freq(n):< 0 : write snap-shot output every |stat_freq| seconds
(PID.TID 0000.0001) >#               > 0 : write time-average output every stat_freq seconds
(PID.TID 0000.0001) >#  stat_phase(n)    : write at time = stat_phase + multiple of |stat_freq|
(PID.TID 0000.0001) >#  stat_region(:,n) : list of "regions" (default: 1 region only=global)
(PID.TID 0000.0001) >#  stat_fields(:,n) : list of diagnostics fields (8.c) (see "available_diagnostics.log"
(PID.TID 0000.0001) >#                 file for the list of all available diag. in this particular config)
(PID.TID 0000.0001) >#-----------------
(PID.TID 0000.0001) > &DIAG_STATIS_PARMS
(PID.TID 0000.0001) >#- regional mask: 3 lat. band: 1 : y <= -24 ; 2 : -24<y<24 ; 3 : 24 <= y
(PID.TID 0000.0001) ># diagSt_regMaskFile='regMask_lat24.bin',
(PID.TID 0000.0001) ># nSetRegMskFile=1,
(PID.TID 0000.0001) ># set_regMask(1)= 1,  1,  1,
(PID.TID 0000.0001) ># val_regMask(1)= 1., 2., 3.,
(PID.TID 0000.0001) >#---
(PID.TID 0000.0001) >#stat_fields(1,1)= 'ETAN    ','UVEL    ','VVEL    ','WVEL    ',
(PID.TID 0000.0001) >#                  'THETA   ','SALT    ','SIarea  ','SIheff  ',
(PID.TID 0000.0001) >#   stat_fname(1)= 'dynStDiag',
(PID.TID 0000.0001) >#    stat_freq(1)= 864000.,
(PID.TID 0000.0001) > /
(PID.TID 0000.0001) >
(PID.TID 0000.0001) 
(PID.TID 0000.0001) S/R DIAGNOSTICS_READPARMS, read namelist "diagnostics_list": start
(PID.TID 0000.0001) S/R DIAGNOSTICS_READPARMS, read namelist "diagnostics_list": OK
(PID.TID 0000.0001) S/R DIAGNOSTICS_READPARMS, read namelist "DIAG_STATIS_PARMS": start
(PID.TID 0000.0001) S/R DIAGNOSTICS_READPARMS, read namelist "DIAG_STATIS_PARMS": OK
(PID.TID 0000.0001)  DIAGNOSTICS_READPARMS: global parameter summary:
(PID.TID 0000.0001)  dumpAtLast = /* always write time-ave diags at the end */
(PID.TID 0000.0001)                   F
(PID.TID 0000.0001)     ;
(PID.TID 0000.0001)  diag_mnc =   /* write NetCDF output files */
(PID.TID 0000.0001)                   F
(PID.TID 0000.0001)     ;
(PID.TID 0000.0001)  useMissingValue = /* put MissingValue where mask = 0 */
(PID.TID 0000.0001)                   F
(PID.TID 0000.0001)     ;
(PID.TID 0000.0001)  diagCG_maxIters = /* max number of iters in diag_cg2d */
(PID.TID 0000.0001)                    1000
(PID.TID 0000.0001)     ;
(PID.TID 0000.0001)  diagCG_resTarget = /* residual target for diag_cg2d */
(PID.TID 0000.0001)                 9.999999999999999E-12
(PID.TID 0000.0001)     ;
(PID.TID 0000.0001)  diagCG_pcOffDFac = /* preconditioner off-diagonal factor */
(PID.TID 0000.0001)                 9.611687812379854E-01
(PID.TID 0000.0001)     ;
(PID.TID 0000.0001) -----------------------------------------------------
(PID.TID 0000.0001)  DIAGNOSTICS_READPARMS: active diagnostics summary:
(PID.TID 0000.0001) -----------------------------------------------------
(PID.TID 0000.0001) Creating Output Stream: surfDiag
(PID.TID 0000.0001) Output Frequency:      86400.000000 ; Phase:           0.000000
(PID.TID 0000.0001)  Averaging Freq.:      86400.000000 , Phase:           0.000000 , Cycle:   1
(PID.TID 0000.0001)  missing value: -9.990000000000E+02
(PID.TID 0000.0001)  Levels:    will be set later
(PID.TID 0000.0001)  Fields:    SHIfwFlx SHI_mass SHIRshel ETAN     SHIuStar SHIForcT
(PID.TID 0000.0001) Creating Output Stream: dynDiag
(PID.TID 0000.0001) Output Frequency:    2592000.000000 ; Phase:           0.000000
(PID.TID 0000.0001)  Averaging Freq.:    2592000.000000 , Phase:           0.000000 , Cycle:   1
(PID.TID 0000.0001)  missing value: -9.990000000000E+02
(PID.TID 0000.0001)  Levels:    will be set later
(PID.TID 0000.0001)  Fields:    UVEL     VVEL     WVEL     THETA    SALT
(PID.TID 0000.0001) Creating Output Stream: SHICE_fwFluxtave
(PID.TID 0000.0001) Output Frequency:      86400.000000 ; Phase:           0.000000
(PID.TID 0000.0001)  Averaging Freq.:      86400.000000 , Phase:           0.000000 , Cycle:   1
(PID.TID 0000.0001)  missing value: -9.990000000000E+02
(PID.TID 0000.0001)  Levels:    will be set later
(PID.TID 0000.0001)  Fields:    SHIfwFlx
(PID.TID 0000.0001) Creating Output Stream: SHICE_mass
(PID.TID 0000.0001) Output Frequency:     -86400.000000 ; Phase:           0.000000
(PID.TID 0000.0001)  Averaging Freq.:          0.000000 , Phase:           0.000000 , Cycle:   1
(PID.TID 0000.0001)  missing value: -9.990000000000E+02
(PID.TID 0000.0001)  Levels:    will be set later
(PID.TID 0000.0001)  Fields:    SHI_mass
(PID.TID 0000.0001) -----------------------------------------------------
(PID.TID 0000.0001)  DIAGNOSTICS_READPARMS: statistics diags. summary:
(PID.TID 0000.0001) -----------------------------------------------------
(PID.TID 0000.0001) 
(PID.TID 0000.0001) SET_PARMS: done
(PID.TID 0000.0001) Enter INI_VERTICAL_GRID: setInterFDr=    T ; setCenterDr=    F
(PID.TID 0000.0001) %MON XC_max                       =   6.0500000000000E+04
(PID.TID 0000.0001) %MON XC_min                       =  -5.0000000000000E+02
(PID.TID 0000.0001) %MON XC_mean                      =   3.0000000000000E+04
(PID.TID 0000.0001) %MON XC_sd                        =   1.7895530168173E+04
(PID.TID 0000.0001) %MON XG_max                       =   6.0000000000000E+04
(PID.TID 0000.0001) %MON XG_min                       =  -1.0000000000000E+03
(PID.TID 0000.0001) %MON XG_mean                      =   2.9500000000000E+04
(PID.TID 0000.0001) %MON XG_sd                        =   1.7895530168173E+04
(PID.TID 0000.0001) %MON DXC_max                      =   1.0000000000000E+03
(PID.TID 0000.0001) %MON DXC_min                      =   1.0000000000000E+03
(PID.TID 0000.0001) %MON DXC_mean                     =   1.0000000000000E+03
(PID.TID 0000.0001) %MON DXC_sd                       =   0.0000000000000E+00
(PID.TID 0000.0001) %MON DXF_max                      =   1.0000000000000E+03
(PID.TID 0000.0001) %MON DXF_min                      =   1.0000000000000E+03
(PID.TID 0000.0001) %MON DXF_mean                     =   1.0000000000000E+03
(PID.TID 0000.0001) %MON DXF_sd                       =   0.0000000000000E+00
(PID.TID 0000.0001) %MON DXG_max                      =   1.0000000000000E+03
(PID.TID 0000.0001) %MON DXG_min                      =   1.0000000000000E+03
(PID.TID 0000.0001) %MON DXG_mean                     =   1.0000000000000E+03
(PID.TID 0000.0001) %MON DXG_sd                       =   0.0000000000000E+00
(PID.TID 0000.0001) %MON DXV_max                      =   1.0000000000000E+03
(PID.TID 0000.0001) %MON DXV_min                      =   1.0000000000000E+03
(PID.TID 0000.0001) %MON DXV_mean                     =   1.0000000000000E+03
(PID.TID 0000.0001) %MON DXV_sd                       =   0.0000000000000E+00
(PID.TID 0000.0001) %MON YC_max                       =   9.9500000000000E+04
(PID.TID 0000.0001) %MON YC_min                       =  -1.5000000000000E+03
(PID.TID 0000.0001) %MON YC_mean                      =   4.9000000000000E+04
(PID.TID 0000.0001) %MON YC_sd                        =   2.9443448620477E+04
(PID.TID 0000.0001) %MON YG_max                       =   9.9000000000000E+04
(PID.TID 0000.0001) %MON YG_min                       =  -2.0000000000000E+03
(PID.TID 0000.0001) %MON YG_mean                      =   4.8500000000000E+04
(PID.TID 0000.0001) %MON YG_sd                        =   2.9443448620477E+04
(PID.TID 0000.0001) %MON DYC_max                      =   1.0000000000000E+03
(PID.TID 0000.0001) %MON DYC_min                      =   1.0000000000000E+03
(PID.TID 0000.0001) %MON DYC_mean                     =   1.0000000000000E+03
(PID.TID 0000.0001) %MON DYC_sd                       =   0.0000000000000E+00
(PID.TID 0000.0001) %MON DYF_max                      =   1.0000000000000E+03
(PID.TID 0000.0001) %MON DYF_min                      =   1.0000000000000E+03
(PID.TID 0000.0001) %MON DYF_mean                     =   1.0000000000000E+03
(PID.TID 0000.0001) %MON DYF_sd                       =   0.0000000000000E+00
(PID.TID 0000.0001) %MON DYG_max                      =   1.0000000000000E+03
(PID.TID 0000.0001) %MON DYG_min                      =   1.0000000000000E+03
(PID.TID 0000.0001) %MON DYG_mean                     =   1.0000000000000E+03
(PID.TID 0000.0001) %MON DYG_sd                       =   0.0000000000000E+00
(PID.TID 0000.0001) %MON DYU_max                      =   1.0000000000000E+03
(PID.TID 0000.0001) %MON DYU_min                      =   1.0000000000000E+03
(PID.TID 0000.0001) %MON DYU_mean                     =   1.0000000000000E+03
(PID.TID 0000.0001) %MON DYU_sd                       =   0.0000000000000E+00
(PID.TID 0000.0001) %MON RA_max                       =   1.0000000000000E+06
(PID.TID 0000.0001) %MON RA_min                       =   1.0000000000000E+06
(PID.TID 0000.0001) %MON RA_mean                      =   1.0000000000000E+06
(PID.TID 0000.0001) %MON RA_sd                        =   0.0000000000000E+00
(PID.TID 0000.0001) %MON RAW_max                      =   1.0000000000000E+06
(PID.TID 0000.0001) %MON RAW_min                      =   1.0000000000000E+06
(PID.TID 0000.0001) %MON RAW_mean                     =   1.0000000000000E+06
(PID.TID 0000.0001) %MON RAW_sd                       =   0.0000000000000E+00
(PID.TID 0000.0001) %MON RAS_max                      =   1.0000000000000E+06
(PID.TID 0000.0001) %MON RAS_min                      =   1.0000000000000E+06
(PID.TID 0000.0001) %MON RAS_mean                     =   1.0000000000000E+06
(PID.TID 0000.0001) %MON RAS_sd                       =   0.0000000000000E+00
(PID.TID 0000.0001) %MON RAZ_max                      =   1.0000000000000E+06
(PID.TID 0000.0001) %MON RAZ_min                      =   1.0000000000000E+06
(PID.TID 0000.0001) %MON RAZ_mean                     =   1.0000000000000E+06
(PID.TID 0000.0001) %MON RAZ_sd                       =   0.0000000000000E+00
(PID.TID 0000.0001) %MON AngleCS_max                  =   1.0000000000000E+00
(PID.TID 0000.0001) %MON AngleCS_min                  =   1.0000000000000E+00
(PID.TID 0000.0001) %MON AngleCS_mean                 =   1.0000000000000E+00
(PID.TID 0000.0001) %MON AngleCS_sd                   =   0.0000000000000E+00
(PID.TID 0000.0001) %MON AngleSN_max                  =   0.0000000000000E+00
(PID.TID 0000.0001) %MON AngleSN_min                  =   0.0000000000000E+00
(PID.TID 0000.0001) %MON AngleSN_mean                 =   0.0000000000000E+00
(PID.TID 0000.0001) %MON AngleSN_sd                   =   0.0000000000000E+00
(PID.TID 0000.0001)  nRecords =   2 ; filePrec =  64 ; fileIter =       864
(PID.TID 0000.0001)     nDims =   2 , dims:
(PID.TID 0000.0001)    1:  62   1  62
(PID.TID 0000.0001)    2: 102   1 102
(PID.TID 0000.0001)     nFlds =   2 , nFl3D =   0 , fields:
(PID.TID 0000.0001)  >SHI_mass< >R_Shelfi<
(PID.TID 0000.0001) missingVal=  1.00000000000000E+00 ; nTimRec =   1 , timeList:
(PID.TID 0000.0001)   8.640000000000E+04
(PID.TID 0000.0001) READ_MFLDS_LEV_RS: read field: "R_Shelfi", #   2 in fldList, rec=   2
(PID.TID 0000.0001) READ_MFLDS_CHECK: - normal end ; reset MFLDS file-name: pickup_shelfice.0000000864
(PID.TID 0000.0001) GAD_INIT_FIXED: GAD_OlMinSize=  2  0  1
(PID.TID 0000.0001) 
(PID.TID 0000.0001) // ===================================
(PID.TID 0000.0001) // GAD parameters :
(PID.TID 0000.0001) // ===================================
(PID.TID 0000.0001) tempAdvScheme =   /* Temp. Horiz.Advection scheme selector */
(PID.TID 0000.0001)                      33
(PID.TID 0000.0001)     ;
(PID.TID 0000.0001) tempVertAdvScheme =   /* Temp. Vert. Advection scheme selector */
(PID.TID 0000.0001)                      33
(PID.TID 0000.0001)     ;
(PID.TID 0000.0001) tempMultiDimAdvec =   /* use Muti-Dim Advec method for Temp */
(PID.TID 0000.0001)                   T
(PID.TID 0000.0001)     ;
(PID.TID 0000.0001) tempSOM_Advection = /* use 2nd Order Moment Advection for Temp */
(PID.TID 0000.0001)                   F
(PID.TID 0000.0001)     ;
(PID.TID 0000.0001) AdamsBashforthGt = /* apply Adams-Bashforth extrapolation on Gt */
(PID.TID 0000.0001)                   F
(PID.TID 0000.0001)     ;
(PID.TID 0000.0001) AdamsBashforth_T = /* apply Adams-Bashforth extrapolation on Temp */
(PID.TID 0000.0001)                   F
(PID.TID 0000.0001)     ;
(PID.TID 0000.0001) saltAdvScheme =   /* Salt. Horiz.advection scheme selector */
(PID.TID 0000.0001)                      33
(PID.TID 0000.0001)     ;
(PID.TID 0000.0001) saltVertAdvScheme =   /* Salt. Vert. Advection scheme selector */
(PID.TID 0000.0001)                      33
(PID.TID 0000.0001)     ;
(PID.TID 0000.0001) saltMultiDimAdvec =   /* use Muti-Dim Advec method for Salt */
(PID.TID 0000.0001)                   T
(PID.TID 0000.0001)     ;
(PID.TID 0000.0001) saltSOM_Advection = /* use 2nd Order Moment Advection for Salt */
(PID.TID 0000.0001)                   F
(PID.TID 0000.0001)     ;
(PID.TID 0000.0001) AdamsBashforthGs = /* apply Adams-Bashforth extrapolation on Gs */
(PID.TID 0000.0001)                   F
(PID.TID 0000.0001)     ;
(PID.TID 0000.0001) AdamsBashforth_S = /* apply Adams-Bashforth extrapolation on Salt */
(PID.TID 0000.0001)                   F
(PID.TID 0000.0001)     ;
(PID.TID 0000.0001) // ===================================
(PID.TID 0000.0001) ------------------------------------------------------------
(PID.TID 0000.0001) DIAGNOSTICS_SET_LEVELS: done
(PID.TID 0000.0001)  Total Nb of available Diagnostics: ndiagt=   204
(PID.TID 0000.0001)  write list of available Diagnostics to file: available_diagnostics.log
(PID.TID 0000.0001) SETDIAG: Allocate  1 x  1 Levels for Diagnostic #   194 SHIfwFlx
(PID.TID 0000.0001) SETDIAG: Allocate  1 x  1 Levels for Diagnostic #   203 SHI_mass
(PID.TID 0000.0001) SETDIAG: Allocate  1 x  1 Levels for Diagnostic #   204 SHIRshel
(PID.TID 0000.0001) SETDIAG: Allocate  1 x  1 Levels for Diagnostic #    23 ETAN
(PID.TID 0000.0001) SETDIAG: Allocate  1 x  1 Levels for Diagnostic #   202 SHIuStar
(PID.TID 0000.0001) SETDIAG: Allocate  1 x  1 Levels for Diagnostic #   198 SHIForcT
(PID.TID 0000.0001) SETDIAG: Allocate 55 x  1 Levels for Diagnostic #    30 UVEL
(PID.TID 0000.0001) SETDIAG: Allocate 55 x  1 Levels for Diagnostic #    31 VVEL
(PID.TID 0000.0001) SETDIAG: Allocate 55 x  1 Levels for Diagnostic #    32 WVEL
(PID.TID 0000.0001) SETDIAG: Allocate 55 x  1 Levels for Diagnostic #    26 THETA
(PID.TID 0000.0001) SETDIAG: Allocate 55 x  1 Levels for Diagnostic #    27 SALT
(PID.TID 0000.0001) - NOTE - SETDIAG:  Diagnostic  #   194 SHIfwFlx is already set
(PID.TID 0000.0001) SETDIAG: Allocate  1 x  1 Levels for Diagnostic #   203 SHI_mass
(PID.TID 0000.0001)   space allocated for all diagnostics:     282 levels
(PID.TID 0000.0001)   set mate pointer for diag #    30  UVEL     , Parms: UUR     MR , mate:    31
(PID.TID 0000.0001)   set mate pointer for diag #    31  VVEL     , Parms: VVR     MR , mate:    30
(PID.TID 0000.0001) DIAGNOSTICS_SET_POINTERS: Set levels for Outp.Stream: surfDiag
(PID.TID 0000.0001)  Levels:       1.
(PID.TID 0000.0001) DIAGNOSTICS_SET_POINTERS: Set levels for Outp.Stream: dynDiag
(PID.TID 0000.0001)  Levels:       1.   2.   3.   4.   5.   6.   7.   8.   9.  10.  11.  12.  13.  14.  15.  16.  17.  18.  19.  20.
(PID.TID 0000.0001)  Levels:      21.  22.  23.  24.  25.  26.  27.  28.  29.  30.  31.  32.  33.  34.  35.  36.  37.  38.  39.  40.
(PID.TID 0000.0001)  Levels:      41.  42.  43.  44.  45.  46.  47.  48.  49.  50.  51.  52.  53.  54.  55.
(PID.TID 0000.0001) DIAGNOSTICS_SET_POINTERS: Set levels for Outp.Stream: SHICE_fwFluxtave
(PID.TID 0000.0001)  Levels:       1.
(PID.TID 0000.0001) DIAGNOSTICS_SET_POINTERS: Set levels for Outp.Stream: SHICE_mass
(PID.TID 0000.0001)  Levels:       1.
(PID.TID 0000.0001) DIAGNOSTICS_SET_POINTERS: done
(PID.TID 0000.0001) ------------------------------------------------------------
(PID.TID 0000.0001) DIAGSTATS_SET_REGIONS: define no region
(PID.TID 0000.0001) ------------------------------------------------------------
(PID.TID 0000.0001)   space allocated for all stats-diags:       0 levels
(PID.TID 0000.0001) DIAGSTATS_SET_POINTERS: done
(PID.TID 0000.0001) ------------------------------------------------------------
(PID.TID 0000.0001) %MON fCori_max                    =  -1.0000000000000E-04
(PID.TID 0000.0001) %MON fCori_min                    =  -1.0000000000000E-04
(PID.TID 0000.0001) %MON fCori_mean                   =  -1.0000000000000E-04
(PID.TID 0000.0001) %MON fCori_sd                     =   9.2157184661268E-19
(PID.TID 0000.0001) %MON fCoriG_max                   =  -1.0000000000000E-04
(PID.TID 0000.0001) %MON fCoriG_min                   =  -1.0000000000000E-04
(PID.TID 0000.0001) %MON fCoriG_mean                  =  -1.0000000000000E-04
(PID.TID 0000.0001) %MON fCoriG_sd                    =   9.2157184661268E-19
(PID.TID 0000.0001) %MON fCoriCos_max                 =   0.0000000000000E+00
(PID.TID 0000.0001) %MON fCoriCos_min                 =   0.0000000000000E+00
(PID.TID 0000.0001) %MON fCoriCos_mean                =   0.0000000000000E+00
(PID.TID 0000.0001) %MON fCoriCos_sd                  =   0.0000000000000E+00
(PID.TID 0000.0001) INI_CG2D: CG2D normalisation factor =  9.0909090909090909E-04
(PID.TID 0000.0001) 
(PID.TID 0000.0001) // =======================================================
(PID.TID 0000.0001) // Model configuration
(PID.TID 0000.0001) // =======================================================
(PID.TID 0000.0001) //
(PID.TID 0000.0001) // "Physical" paramters ( PARM01 in namelist )
(PID.TID 0000.0001) //
(PID.TID 0000.0001) buoyancyRelation = /* Type of relation to get Buoyancy */
(PID.TID 0000.0001)               'OCEANIC'
(PID.TID 0000.0001)     ;
(PID.TID 0000.0001) fluidIsAir   =  /* fluid major constituent is Air */
(PID.TID 0000.0001)                   F
(PID.TID 0000.0001)     ;
(PID.TID 0000.0001) fluidIsWater =  /* fluid major constituent is Water */
(PID.TID 0000.0001)                   T
(PID.TID 0000.0001)     ;
(PID.TID 0000.0001) usingPCoords =  /* use p (or p*) vertical coordinate */
(PID.TID 0000.0001)                   F
(PID.TID 0000.0001)     ;
(PID.TID 0000.0001) usingZCoords =  /* use z (or z*) vertical coordinate */
(PID.TID 0000.0001)                   T
(PID.TID 0000.0001)     ;
(PID.TID 0000.0001) tRef =   /* Reference temperature profile ( oC or K ) */
(PID.TID 0000.0001)    55 @ -1.900000000000000E+00              /* K =  1: 55 */
(PID.TID 0000.0001)     ;
(PID.TID 0000.0001) sRef =   /* Reference salinity profile ( psu ) */
(PID.TID 0000.0001)    55 @  3.440000000000000E+01              /* K =  1: 55 */
(PID.TID 0000.0001)     ;
(PID.TID 0000.0001) useStrainTensionVisc= /* Use StrainTension Form of Viscous Operator */
(PID.TID 0000.0001)                   F
(PID.TID 0000.0001)     ;
(PID.TID 0000.0001) useVariableVisc = /* Use variable horizontal viscosity */
(PID.TID 0000.0001)                   F
(PID.TID 0000.0001)     ;
(PID.TID 0000.0001) useHarmonicVisc = /* Use harmonic horizontal viscosity */
(PID.TID 0000.0001)                   T
(PID.TID 0000.0001)     ;
(PID.TID 0000.0001) useBiharmonicVisc= /* Use biharmonic horiz.  viscosity */
(PID.TID 0000.0001)                   F
(PID.TID 0000.0001)     ;
(PID.TID 0000.0001) useSmag3D = /* Use isotropic 3-D Smagorinsky viscosity */
(PID.TID 0000.0001)                   F
(PID.TID 0000.0001)     ;
(PID.TID 0000.0001) viscAh  =   /* Lateral harmonic viscosity ( m^2/s ) */
(PID.TID 0000.0001)                 1.000000000000000E+01
(PID.TID 0000.0001)     ;
(PID.TID 0000.0001) viscA4  =   /* Lateral biharmonic viscosity ( m^4/s ) */
(PID.TID 0000.0001)                 0.000000000000000E+00
(PID.TID 0000.0001)     ;
(PID.TID 0000.0001) no_slip_sides =  /* Viscous BCs: No-slip sides */
(PID.TID 0000.0001)                   F
(PID.TID 0000.0001)     ;
(PID.TID 0000.0001) sideDragFactor = /* side-drag scaling factor (non-dim) */
(PID.TID 0000.0001)                 2.000000000000000E+00
(PID.TID 0000.0001)     ;
(PID.TID 0000.0001) viscArNr = /* vertical profile of vertical viscosity ( m^2/s )*/
(PID.TID 0000.0001)    55 @  1.000000000000000E-03              /* K =  1: 55 */
(PID.TID 0000.0001)     ;
(PID.TID 0000.0001) no_slip_bottom =  /* Viscous BCs: No-slip bottom */
(PID.TID 0000.0001)                   F
(PID.TID 0000.0001)     ;
(PID.TID 0000.0001) bottomVisc_pCell = /* Partial-cell in bottom Visc. BC */
(PID.TID 0000.0001)                   F
(PID.TID 0000.0001)     ;
(PID.TID 0000.0001) bottomDragLinear = /* linear bottom-drag coefficient ( m/s ) */
(PID.TID 0000.0001)                 0.000000000000000E+00
(PID.TID 0000.0001)     ;
(PID.TID 0000.0001) bottomDragQuadratic = /* quadratic bottom-drag coefficient (-) */
(PID.TID 0000.0001)                 2.500000000000000E-03
(PID.TID 0000.0001)     ;
(PID.TID 0000.0001) selectBotDragQuadr = /* select quadratic bottom drag options */
(PID.TID 0000.0001)                       0
(PID.TID 0000.0001)     ;
(PID.TID 0000.0001) diffKhT =   /* Laplacian diffusion of heat laterally ( m^2/s ) */
(PID.TID 0000.0001)                 1.000000000000000E+01
(PID.TID 0000.0001)     ;
(PID.TID 0000.0001) diffK4T =   /* Biharmonic diffusion of heat laterally ( m^4/s ) */
(PID.TID 0000.0001)                 0.000000000000000E+00
(PID.TID 0000.0001)     ;
(PID.TID 0000.0001) diffKhS =   /* Laplacian diffusion of salt laterally ( m^2/s ) */
(PID.TID 0000.0001)                 1.000000000000000E+01
(PID.TID 0000.0001)     ;
(PID.TID 0000.0001) diffK4S =   /* Biharmonic diffusion of salt laterally ( m^4/s ) */
(PID.TID 0000.0001)                 0.000000000000000E+00
(PID.TID 0000.0001)     ;
(PID.TID 0000.0001) diffKrNrT = /* vertical profile of vertical diffusion of Temp ( m^2/s )*/
(PID.TID 0000.0001)    55 @  5.000000000000000E-05              /* K =  1: 55 */
(PID.TID 0000.0001)     ;
(PID.TID 0000.0001) diffKrNrS = /* vertical profile of vertical diffusion of Salt ( m^2/s )*/
(PID.TID 0000.0001)    55 @  5.000000000000000E-05              /* K =  1: 55 */
(PID.TID 0000.0001)     ;
(PID.TID 0000.0001) diffKrBL79surf = /* Surface diffusion for Bryan and Lewis 79 ( m^2/s ) */
(PID.TID 0000.0001)                 0.000000000000000E+00
(PID.TID 0000.0001)     ;
(PID.TID 0000.0001) diffKrBL79deep = /* Deep diffusion for Bryan and Lewis 1979 ( m^2/s ) */
(PID.TID 0000.0001)                 0.000000000000000E+00
(PID.TID 0000.0001)     ;
(PID.TID 0000.0001) diffKrBL79scl = /* Depth scale for Bryan and Lewis 1979 ( m ) */
(PID.TID 0000.0001)                 2.000000000000000E+02
(PID.TID 0000.0001)     ;
(PID.TID 0000.0001) diffKrBL79Ho = /* Turning depth for Bryan and Lewis 1979 ( m ) */
(PID.TID 0000.0001)                -2.000000000000000E+03
(PID.TID 0000.0001)     ;
(PID.TID 0000.0001) ivdc_kappa = /* Implicit Vertical Diffusivity for Convection ( m^2/s) */
(PID.TID 0000.0001)                 0.000000000000000E+00
(PID.TID 0000.0001)     ;
(PID.TID 0000.0001) hMixCriteria=  /* Criteria for mixed-layer diagnostic */
(PID.TID 0000.0001)                -8.000000000000000E-01
(PID.TID 0000.0001)     ;
(PID.TID 0000.0001) dRhoSmall =  /* Parameter for mixed-layer diagnostic */
(PID.TID 0000.0001)                 1.000000000000000E-06
(PID.TID 0000.0001)     ;
(PID.TID 0000.0001) hMixSmooth=  /* Smoothing parameter for mixed-layer diagnostic */
(PID.TID 0000.0001)                 0.000000000000000E+00
(PID.TID 0000.0001)     ;
(PID.TID 0000.0001) eosType =  /* Type of Equation of State */
(PID.TID 0000.0001)               'JMD95Z'
(PID.TID 0000.0001)     ;
(PID.TID 0000.0001) eosRefP0 = /* Reference atmospheric pressure for EOS ( Pa ) */
(PID.TID 0000.0001)                 1.013250000000000E+05
(PID.TID 0000.0001)     ;
(PID.TID 0000.0001) selectP_inEOS_Zc = /* select pressure to use in EOS (0,1,2,3) */
(PID.TID 0000.0001)                       0
(PID.TID 0000.0001)     0= -g*rhoConst*z ; 1= pRef (from tRef,sRef); 2= Hyd P ; 3= Hyd+NH P
(PID.TID 0000.0001)     ;
(PID.TID 0000.0001) surf_pRef = /* Surface reference pressure ( Pa ) */
(PID.TID 0000.0001)                 1.013250000000000E+05
(PID.TID 0000.0001)     ;
(PID.TID 0000.0001) HeatCapacity_Cp =  /* Specific heat capacity ( J/kg/K ) */
(PID.TID 0000.0001)                 3.974000000000000E+03
(PID.TID 0000.0001)     ;
(PID.TID 0000.0001) celsius2K = /* 0 degree Celsius converted to Kelvin ( K ) */
(PID.TID 0000.0001)                 2.731500000000000E+02
(PID.TID 0000.0001)     ;
(PID.TID 0000.0001) rhoConst  = /* Reference density (Boussinesq)  ( kg/m^3 ) */
(PID.TID 0000.0001)                 1.000000000000000E+03
(PID.TID 0000.0001)     ;
(PID.TID 0000.0001) rhoFacC = /* normalized Reference density @ cell-Center (-) */
(PID.TID 0000.0001)    55 @  1.000000000000000E+00              /* K =  1: 55 */
(PID.TID 0000.0001)     ;
(PID.TID 0000.0001) rhoFacF = /* normalized Reference density @ W-Interface (-) */
(PID.TID 0000.0001)    56 @  1.000000000000000E+00              /* K =  1: 56 */
(PID.TID 0000.0001)     ;
(PID.TID 0000.0001) rhoConstFresh = /* Fresh-water reference density ( kg/m^3 ) */
(PID.TID 0000.0001)                 1.000000000000000E+03
(PID.TID 0000.0001)     ;
(PID.TID 0000.0001) gravity =   /* Gravitational acceleration ( m/s^2 ) */
(PID.TID 0000.0001)                 9.810000000000000E+00
(PID.TID 0000.0001)     ;
(PID.TID 0000.0001) gBaro =   /* Barotropic gravity ( m/s^2 ) */
(PID.TID 0000.0001)                 9.810000000000000E+00
(PID.TID 0000.0001)     ;
(PID.TID 0000.0001) gravFacC = /* gravity factor (vs surf.) @ cell-Center (-) */
(PID.TID 0000.0001)    55 @  1.000000000000000E+00              /* K =  1: 55 */
(PID.TID 0000.0001)     ;
(PID.TID 0000.0001) gravFacF = /* gravity factor (vs surf.) @ W-Interface (-) */
(PID.TID 0000.0001)    56 @  1.000000000000000E+00              /* K =  1: 56 */
(PID.TID 0000.0001)     ;
(PID.TID 0000.0001) rotationPeriod =   /* Rotation Period ( s ) */
(PID.TID 0000.0001)                 8.616400000000000E+04
(PID.TID 0000.0001)     ;
(PID.TID 0000.0001) omega =   /* Angular velocity ( rad/s ) */
(PID.TID 0000.0001)                 7.292123516990375E-05
(PID.TID 0000.0001)     ;
(PID.TID 0000.0001) f0 =   /* Reference coriolis parameter ( 1/s ) */
(PID.TID 0000.0001)                -1.000000000000000E-04
(PID.TID 0000.0001)     ;
(PID.TID 0000.0001) beta =   /* Beta ( 1/(m.s) ) */
(PID.TID 0000.0001)                 9.999999999999999E-12
(PID.TID 0000.0001)     ;
(PID.TID 0000.0001) fPrime =   /* Second coriolis parameter ( 1/s ) */
(PID.TID 0000.0001)                 0.000000000000000E+00
(PID.TID 0000.0001)     ;
(PID.TID 0000.0001) rigidLid =   /* Rigid lid on/off flag */
(PID.TID 0000.0001)                   F
(PID.TID 0000.0001)     ;
(PID.TID 0000.0001) implicitFreeSurface =   /* Implicit free surface on/off flag */
(PID.TID 0000.0001)                   T
(PID.TID 0000.0001)     ;
(PID.TID 0000.0001) freeSurfFac =   /* Implicit free surface factor */
(PID.TID 0000.0001)                 1.000000000000000E+00
(PID.TID 0000.0001)     ;
(PID.TID 0000.0001) implicSurfPress =  /* Surface Pressure implicit factor (0-1)*/
(PID.TID 0000.0001)                 1.000000000000000E+00
(PID.TID 0000.0001)     ;
(PID.TID 0000.0001) implicDiv2DFlow =  /* Barot. Flow Div. implicit factor (0-1)*/
(PID.TID 0000.0001)                 1.000000000000000E+00
(PID.TID 0000.0001)     ;
(PID.TID 0000.0001) uniformLin_PhiSurf = /* use uniform Bo_surf on/off flag*/
(PID.TID 0000.0001)                   T
(PID.TID 0000.0001)     ;
(PID.TID 0000.0001) uniformFreeSurfLev = /* free-surface level-index is uniform */
(PID.TID 0000.0001)                   F
(PID.TID 0000.0001)     ;
(PID.TID 0000.0001) hFacMin =   /* minimum partial cell factor (hFac) */
(PID.TID 0000.0001)                 2.000000000000000E-01
(PID.TID 0000.0001)     ;
(PID.TID 0000.0001) hFacMinDr = /* minimum partial cell thickness ( m) */
(PID.TID 0000.0001)                 0.000000000000000E+00
(PID.TID 0000.0001)     ;
(PID.TID 0000.0001) exactConserv =  /* Exact Volume Conservation on/off flag*/
(PID.TID 0000.0001)                   T
(PID.TID 0000.0001)     ;
(PID.TID 0000.0001) linFSConserveTr = /* Tracer correction for Lin Free Surface on/off flag*/
(PID.TID 0000.0001)                   F
(PID.TID 0000.0001)     ;
(PID.TID 0000.0001) nonlinFreeSurf = /* Non-linear Free Surf. options (-1,0,1,2,3)*/
(PID.TID 0000.0001)                       4
(PID.TID 0000.0001)      -1,0= Off ; 1,2,3= On, 2=+rescale gU,gV, 3=+update cg2d solv.
(PID.TID 0000.0001)     ;
(PID.TID 0000.0001) hFacInf =   /* lower threshold for hFac (nonlinFreeSurf only)*/
(PID.TID 0000.0001)                 2.000000000000000E-01
(PID.TID 0000.0001)     ;
(PID.TID 0000.0001) hFacSup =   /* upper threshold for hFac (nonlinFreeSurf only)*/
(PID.TID 0000.0001)                 2.000000000000000E+00
(PID.TID 0000.0001)     ;
(PID.TID 0000.0001) select_rStar = /* r* Vertical coord. options (=0 r coord.; >0 uses r*)*/
(PID.TID 0000.0001)                       0
(PID.TID 0000.0001)     ;
(PID.TID 0000.0001) useRealFreshWaterFlux = /* Real Fresh Water Flux on/off flag*/
(PID.TID 0000.0001)                   T
(PID.TID 0000.0001)     ;
(PID.TID 0000.0001) temp_EvPrRn = /* Temp. of Evap/Prec/R (UNSET=use local T)(oC)*/
(PID.TID 0000.0001)                 1.234567000000000E+05
(PID.TID 0000.0001)     ;
(PID.TID 0000.0001) salt_EvPrRn = /* Salin. of Evap/Prec/R (UNSET=use local S)(psu)*/
(PID.TID 0000.0001)                 0.000000000000000E+00
(PID.TID 0000.0001)     ;
(PID.TID 0000.0001) selectAddFluid = /* option for mass source/sink of fluid (=0: off) */
(PID.TID 0000.0001)                       0
(PID.TID 0000.0001)     ;
(PID.TID 0000.0001) temp_addMass = /* Temp. of addMass array (UNSET=use local T)(oC)*/
(PID.TID 0000.0001)                 1.234567000000000E+05
(PID.TID 0000.0001)     ;
(PID.TID 0000.0001) salt_addMass = /* Salin. of addMass array (UNSET=use local S)(psu)*/
(PID.TID 0000.0001)                 0.000000000000000E+00
(PID.TID 0000.0001)     ;
(PID.TID 0000.0001) use3Dsolver = /* use 3-D pressure solver on/off flag */
(PID.TID 0000.0001)                   F
(PID.TID 0000.0001)     ;
(PID.TID 0000.0001) nonHydrostatic =  /* Non-Hydrostatic on/off flag */
(PID.TID 0000.0001)                   F
(PID.TID 0000.0001)     ;
(PID.TID 0000.0001) nh_Am2 = /* Non-Hydrostatic terms scaling factor */
(PID.TID 0000.0001)                 1.000000000000000E+00
(PID.TID 0000.0001)     ;
(PID.TID 0000.0001) implicitNHPress = /* Non-Hyd Pressure implicit factor (0-1)*/
(PID.TID 0000.0001)                 1.000000000000000E+00
(PID.TID 0000.0001)     ;
(PID.TID 0000.0001) selectNHfreeSurf = /* Non-Hyd (free-)Surface option */
(PID.TID 0000.0001)                       0
(PID.TID 0000.0001)     ;
(PID.TID 0000.0001) quasiHydrostatic = /* Quasi-Hydrostatic on/off flag */
(PID.TID 0000.0001)                   F
(PID.TID 0000.0001)     ;
(PID.TID 0000.0001) calc_wVelocity = /* vertical velocity calculation on/off flag */
(PID.TID 0000.0001)                   T
(PID.TID 0000.0001)     ;
(PID.TID 0000.0001) momStepping =  /* Momentum equation on/off flag */
(PID.TID 0000.0001)                   T
(PID.TID 0000.0001)     ;
(PID.TID 0000.0001) vectorInvariantMomentum= /* Vector-Invariant Momentum on/off */
(PID.TID 0000.0001)                   F
(PID.TID 0000.0001)     ;
(PID.TID 0000.0001) momAdvection =  /* Momentum advection on/off flag */
(PID.TID 0000.0001)                   T
(PID.TID 0000.0001)     ;
(PID.TID 0000.0001) momViscosity =  /* Momentum viscosity on/off flag */
(PID.TID 0000.0001)                   T
(PID.TID 0000.0001)     ;
(PID.TID 0000.0001) momImplVertAdv= /* Momentum implicit vert. advection on/off*/
(PID.TID 0000.0001)                   F
(PID.TID 0000.0001)     ;
(PID.TID 0000.0001) implicitViscosity = /* Implicit viscosity on/off flag */
(PID.TID 0000.0001)                   F
(PID.TID 0000.0001)     ;
(PID.TID 0000.0001) selectImplicitDrag= /* Implicit bot Drag options (0,1,2)*/
(PID.TID 0000.0001)                       0
(PID.TID 0000.0001)     0= Expl. ; 1= Impl. on provis. Vel ; 2= Fully Impl (with surf.P)
(PID.TID 0000.0001)     ;
(PID.TID 0000.0001) metricTerms =  /* metric-Terms on/off flag */
(PID.TID 0000.0001)                   F
(PID.TID 0000.0001)     ;
(PID.TID 0000.0001) useNHMTerms = /* Non-Hydrostatic Metric-Terms on/off */
(PID.TID 0000.0001)                   F
(PID.TID 0000.0001)     ;
(PID.TID 0000.0001) selectCoriMap = /* Coriolis Map options (0,1,2,3)*/
(PID.TID 0000.0001)                       0
(PID.TID 0000.0001)     0= f-Plane ; 1= Beta-Plane ; 2= Spherical ; 3= read from file
(PID.TID 0000.0001)     ;
(PID.TID 0000.0001) use3dCoriolis = /* 3-D Coriolis on/off flag */
(PID.TID 0000.0001)                   F
(PID.TID 0000.0001)     ;
(PID.TID 0000.0001) useCoriolis =  /* Coriolis on/off flag */
(PID.TID 0000.0001)                   T
(PID.TID 0000.0001)     ;
(PID.TID 0000.0001) useCDscheme =  /* CD scheme on/off flag */
(PID.TID 0000.0001)                   F
(PID.TID 0000.0001)     ;
(PID.TID 0000.0001) selectCoriScheme= /* Scheme selector for Coriolis-Term */
(PID.TID 0000.0001)                       0
(PID.TID 0000.0001)    = 0 : original discretization (simple averaging, no hFac)
(PID.TID 0000.0001)    = 1 : Wet-point averaging (Jamar & Ozer 1986)
(PID.TID 0000.0001)    = 2 : energy conserving scheme (no hFac weight)
(PID.TID 0000.0001)    = 3 : energy conserving scheme using Wet-point averaging
(PID.TID 0000.0001)     ;
(PID.TID 0000.0001) momForcing =  /* Momentum forcing on/off flag */
(PID.TID 0000.0001)                   T
(PID.TID 0000.0001)     ;
(PID.TID 0000.0001) momTidalForcing = /* Momentum Tidal forcing on/off flag */
(PID.TID 0000.0001)                   T
(PID.TID 0000.0001)     ;
(PID.TID 0000.0001) momPressureForcing =  /* Momentum pressure term on/off flag */
(PID.TID 0000.0001)                   T
(PID.TID 0000.0001)     ;
(PID.TID 0000.0001) implicitIntGravWave= /* Implicit Internal Gravity Wave flag */
(PID.TID 0000.0001)                   F
(PID.TID 0000.0001)     ;
(PID.TID 0000.0001) staggerTimeStep =    /* Stagger time stepping on/off flag */
(PID.TID 0000.0001)                   T
(PID.TID 0000.0001)     ;
(PID.TID 0000.0001) doResetHFactors = /* reset thickness factors @ each time-step */
(PID.TID 0000.0001)                   F
(PID.TID 0000.0001)     ;
(PID.TID 0000.0001) multiDimAdvection =  /* enable/disable Multi-Dim Advection */
(PID.TID 0000.0001)                   T
(PID.TID 0000.0001)     ;
(PID.TID 0000.0001) useMultiDimAdvec =   /* Multi-Dim Advection is/is-not used */
(PID.TID 0000.0001)                   T
(PID.TID 0000.0001)     ;
(PID.TID 0000.0001) implicitDiffusion = /* Implicit Diffusion on/off flag */
(PID.TID 0000.0001)                   F
(PID.TID 0000.0001)     ;
(PID.TID 0000.0001) tempStepping =  /* Temperature equation on/off flag */
(PID.TID 0000.0001)                   T
(PID.TID 0000.0001)     ;
(PID.TID 0000.0001) tempAdvection = /* Temperature advection on/off flag */
(PID.TID 0000.0001)                   T
(PID.TID 0000.0001)     ;
(PID.TID 0000.0001) tempImplVertAdv = /* Temp. implicit vert. advection on/off */
(PID.TID 0000.0001)                   F
(PID.TID 0000.0001)     ;
(PID.TID 0000.0001) tempForcing  =  /* Temperature forcing on/off flag */
(PID.TID 0000.0001)                   T
(PID.TID 0000.0001)     ;
(PID.TID 0000.0001) doThetaClimRelax = /* apply SST relaxation on/off flag */
(PID.TID 0000.0001)                   F
(PID.TID 0000.0001)     ;
(PID.TID 0000.0001) tempIsActiveTr = /* Temp. is a dynamically Active Tracer */
(PID.TID 0000.0001)                   T
(PID.TID 0000.0001)     ;
(PID.TID 0000.0001) saltStepping =  /* Salinity equation on/off flag */
(PID.TID 0000.0001)                   T
(PID.TID 0000.0001)     ;
(PID.TID 0000.0001) saltAdvection = /* Salinity advection on/off flag */
(PID.TID 0000.0001)                   T
(PID.TID 0000.0001)     ;
(PID.TID 0000.0001) saltImplVertAdv = /* Sali. implicit vert. advection on/off */
(PID.TID 0000.0001)                   F
(PID.TID 0000.0001)     ;
(PID.TID 0000.0001) saltForcing  =  /* Salinity forcing on/off flag */
(PID.TID 0000.0001)                   T
(PID.TID 0000.0001)     ;
(PID.TID 0000.0001) doSaltClimRelax = /* apply SSS relaxation on/off flag */
(PID.TID 0000.0001)                   F
(PID.TID 0000.0001)     ;
(PID.TID 0000.0001) saltIsActiveTr = /* Salt  is a dynamically Active Tracer */
(PID.TID 0000.0001)                   T
(PID.TID 0000.0001)     ;
(PID.TID 0000.0001)  readBinaryPrec = /* Precision used for reading binary files */
(PID.TID 0000.0001)                      64
(PID.TID 0000.0001)     ;
(PID.TID 0000.0001) writeBinaryPrec = /* Precision used for writing binary files */
(PID.TID 0000.0001)                      32
(PID.TID 0000.0001)     ;
(PID.TID 0000.0001)  rwSuffixType =   /* select format of mds file suffix */
(PID.TID 0000.0001)                       0
(PID.TID 0000.0001)    = 0 : myIter (I10.10) ;   = 1 : 100*myTime (100th sec) ;
(PID.TID 0000.0001)    = 2 : myTime (seconds);   = 3 : myTime/360 (10th of hr);
(PID.TID 0000.0001)    = 4 : myTime/3600 (hours)
(PID.TID 0000.0001)     ;
(PID.TID 0000.0001)  globalFiles = /* write "global" (=not per tile) files */
(PID.TID 0000.0001)                   T
(PID.TID 0000.0001)     ;
(PID.TID 0000.0001)  useSingleCpuIO = /* only master MPI process does I/O */
(PID.TID 0000.0001)                   T
(PID.TID 0000.0001)     ;
(PID.TID 0000.0001)  useSingleCpuInput = /* only master process reads input */
(PID.TID 0000.0001)                   T
(PID.TID 0000.0001)     ;
(PID.TID 0000.0001) /* debLev[*]  : level of debug & auxiliary message printing */
(PID.TID 0000.0001) debLevZero =  0 ; /* level of disabled aux. msg printing */
(PID.TID 0000.0001)    debLevA =  1 ; /* level of minimum  aux. msg printing */
(PID.TID 0000.0001)    debLevB =  2 ; /* level of low aux. print (report read-file opening)*/
(PID.TID 0000.0001)    debLevC =  3 ; /* level of moderate debug prt (most pkgs debug msg) */
(PID.TID 0000.0001)    debLevD =  4 ; /* level of enhanced debug prt (add DEBUG_STATS prt) */
(PID.TID 0000.0001)    debLevE =  5 ; /* level of extensive debug printing */
(PID.TID 0000.0001) debugLevel =  /* select debug printing level */
(PID.TID 0000.0001)                       1
(PID.TID 0000.0001)     ;
(PID.TID 0000.0001)  plotLevel =  /* select PLOT_FIELD printing level */
(PID.TID 0000.0001)                       1
(PID.TID 0000.0001)     ;
(PID.TID 0000.0001) //
(PID.TID 0000.0001) // Elliptic solver(s) paramters ( PARM02 in namelist )
(PID.TID 0000.0001) //
(PID.TID 0000.0001) cg2dMaxIters =   /* Upper limit on 2d con. grad iterations  */
(PID.TID 0000.0001)                    1000
(PID.TID 0000.0001)     ;
(PID.TID 0000.0001) cg2dChkResFreq =   /* 2d con. grad convergence test frequency */
(PID.TID 0000.0001)                       1
(PID.TID 0000.0001)     ;
(PID.TID 0000.0001) cg2dUseMinResSol= /* use cg2d last-iter(=0) / min-resid.(=1) solution */
(PID.TID 0000.0001)                       0
(PID.TID 0000.0001)     ;
(PID.TID 0000.0001) cg2dTargetResidual =   /* 2d con. grad target residual  */
(PID.TID 0000.0001)                 9.999999999999999E-12
(PID.TID 0000.0001)     ;
(PID.TID 0000.0001) cg2dTargetResWunit =   /* CG2d target residual [W units] */
(PID.TID 0000.0001)                -1.000000000000000E+00
(PID.TID 0000.0001)     ;
(PID.TID 0000.0001) cg2dPreCondFreq =   /* Freq. for updating cg2d preconditioner */
(PID.TID 0000.0001)                       1
(PID.TID 0000.0001)     ;
(PID.TID 0000.0001) useSRCGSolver =  /* use single reduction CG solver(s) */
(PID.TID 0000.0001)                   F
(PID.TID 0000.0001)     ;
(PID.TID 0000.0001) printResidualFreq = /* Freq. for printing CG residual */
(PID.TID 0000.0001)                       0
(PID.TID 0000.0001)     ;
(PID.TID 0000.0001) //
(PID.TID 0000.0001) // Time stepping paramters ( PARM03 in namelist )
(PID.TID 0000.0001) //
(PID.TID 0000.0001) deltaTMom =   /* Momentum equation timestep ( s ) */
(PID.TID 0000.0001)                 1.000000000000000E+02
(PID.TID 0000.0001)     ;
(PID.TID 0000.0001) deltaTFreeSurf = /* FreeSurface equation timestep ( s ) */
(PID.TID 0000.0001)                 1.000000000000000E+02
(PID.TID 0000.0001)     ;
(PID.TID 0000.0001) dTtracerLev =  /* Tracer equation timestep ( s ) */
(PID.TID 0000.0001)    55 @  1.000000000000000E+02              /* K =  1: 55 */
(PID.TID 0000.0001)     ;
(PID.TID 0000.0001) deltaTClock  =   /* Model clock timestep ( s ) */
(PID.TID 0000.0001)                 1.000000000000000E+02
(PID.TID 0000.0001)     ;
(PID.TID 0000.0001) cAdjFreq =   /* Convective adjustment interval ( s ) */
(PID.TID 0000.0001)                 1.000000000000000E+02
(PID.TID 0000.0001)     ;
(PID.TID 0000.0001) momForcingOutAB = /* =1: take Momentum Forcing out of Adams-Bash. stepping */
(PID.TID 0000.0001)                       0
(PID.TID 0000.0001)     ;
(PID.TID 0000.0001) tracForcingOutAB = /* =1: take T,S,pTr Forcing out of Adams-Bash. stepping */
(PID.TID 0000.0001)                       0
(PID.TID 0000.0001)     ;
(PID.TID 0000.0001) momDissip_In_AB = /* put Dissipation Tendency in Adams-Bash. stepping */
(PID.TID 0000.0001)                   T
(PID.TID 0000.0001)     ;
(PID.TID 0000.0001) doAB_onGtGs = /* apply AB on Tendencies (rather than on T,S)*/
(PID.TID 0000.0001)                   T
(PID.TID 0000.0001)     ;
(PID.TID 0000.0001) abEps =   /* Adams-Bashforth-2 stabilizing weight */
(PID.TID 0000.0001)                 1.000000000000000E-02
(PID.TID 0000.0001)     ;
(PID.TID 0000.0001) applyExchUV_early = /* Apply EXCH to U,V earlier in time-step */
(PID.TID 0000.0001)                   F
(PID.TID 0000.0001)     ;
(PID.TID 0000.0001) pickupStrictlyMatch= /* stop if pickup do not strictly match */
(PID.TID 0000.0001)                   T
(PID.TID 0000.0001)     ;
(PID.TID 0000.0001) nIter0   =   /* Run starting timestep number */
(PID.TID 0000.0001)                     864
(PID.TID 0000.0001)     ;
(PID.TID 0000.0001) nTimeSteps = /* Number of timesteps */
(PID.TID 0000.0001)                     865
(PID.TID 0000.0001)     ;
(PID.TID 0000.0001) nEndIter =   /* Run ending timestep number */
(PID.TID 0000.0001)                    1729
(PID.TID 0000.0001)     ;
(PID.TID 0000.0001) baseTime =   /* Model base time ( s ) */
(PID.TID 0000.0001)                 0.000000000000000E+00
(PID.TID 0000.0001)     ;
(PID.TID 0000.0001) startTime =  /* Run start time ( s ) */
(PID.TID 0000.0001)                 8.640000000000000E+04
(PID.TID 0000.0001)     ;
(PID.TID 0000.0001) endTime  =   /* Integration ending time ( s ) */
(PID.TID 0000.0001)                 1.729000000000000E+05
(PID.TID 0000.0001)     ;
(PID.TID 0000.0001) pChkPtFreq = /* Permanent restart/pickup file interval ( s ) */
(PID.TID 0000.0001)                 8.640000000000000E+04
(PID.TID 0000.0001)     ;
(PID.TID 0000.0001) chkPtFreq  = /* Rolling restart/pickup file interval ( s ) */
(PID.TID 0000.0001)                 8.640000000000000E+05
(PID.TID 0000.0001)     ;
(PID.TID 0000.0001) pickup_write_mdsio =   /* Model IO flag. */
(PID.TID 0000.0001)                   T
(PID.TID 0000.0001)     ;
(PID.TID 0000.0001) pickup_read_mdsio =   /* Model IO flag. */
(PID.TID 0000.0001)                   T
(PID.TID 0000.0001)     ;
(PID.TID 0000.0001) writePickupAtEnd =   /* Model IO flag. */
(PID.TID 0000.0001)                   T
(PID.TID 0000.0001)     ;
(PID.TID 0000.0001) dumpFreq =   /* Model state write out interval ( s ). */
(PID.TID 0000.0001)                 8.640000000000000E+05
(PID.TID 0000.0001)     ;
(PID.TID 0000.0001) dumpInitAndLast= /* write out Initial & Last iter. model state */
(PID.TID 0000.0001)                   T
(PID.TID 0000.0001)     ;
(PID.TID 0000.0001) snapshot_mdsio =   /* Model IO flag. */
(PID.TID 0000.0001)                   T
(PID.TID 0000.0001)     ;
(PID.TID 0000.0001) monitorFreq =   /* Monitor output interval ( s ). */
(PID.TID 0000.0001)                 1.000000000000000E+02
(PID.TID 0000.0001)     ;
(PID.TID 0000.0001) monitorSelect = /* select group of variables to monitor */
(PID.TID 0000.0001)                       1
(PID.TID 0000.0001)     ;
(PID.TID 0000.0001) monitor_stdio =   /* Model IO flag. */
(PID.TID 0000.0001)                   T
(PID.TID 0000.0001)     ;
(PID.TID 0000.0001) externForcingPeriod =   /* forcing period (s) */
(PID.TID 0000.0001)                 0.000000000000000E+00
(PID.TID 0000.0001)     ;
(PID.TID 0000.0001) externForcingCycle =   /* period of the cyle (s). */
(PID.TID 0000.0001)                 0.000000000000000E+00
(PID.TID 0000.0001)     ;
(PID.TID 0000.0001) tauThetaClimRelax =   /* relaxation time scale (s) */
(PID.TID 0000.0001)                 0.000000000000000E+00
(PID.TID 0000.0001)     ;
(PID.TID 0000.0001) tauSaltClimRelax =   /* relaxation time scale (s) */
(PID.TID 0000.0001)                 0.000000000000000E+00
(PID.TID 0000.0001)     ;
(PID.TID 0000.0001) latBandClimRelax =   /* max. Lat. where relaxation */
(PID.TID 0000.0001)                 3.060000000000000E+05
(PID.TID 0000.0001)     ;
(PID.TID 0000.0001) //
(PID.TID 0000.0001) // Gridding paramters ( PARM04 in namelist )
(PID.TID 0000.0001) //
(PID.TID 0000.0001) usingCartesianGrid = /* Cartesian coordinates flag ( True/False ) */
(PID.TID 0000.0001)                   T
(PID.TID 0000.0001)     ;
(PID.TID 0000.0001) usingCylindricalGrid = /* Cylindrical coordinates flag ( True/False ) */
(PID.TID 0000.0001)                   F
(PID.TID 0000.0001)     ;
(PID.TID 0000.0001) usingSphericalPolarGrid = /* Spherical coordinates flag ( True/False ) */
(PID.TID 0000.0001)                   F
(PID.TID 0000.0001)     ;
(PID.TID 0000.0001) usingCurvilinearGrid = /* Curvilinear coordinates flag ( True/False ) */
(PID.TID 0000.0001)                   F
(PID.TID 0000.0001)     ;
(PID.TID 0000.0001) useMin4hFacEdges = /* set hFacW,S as minimum of adjacent hFacC factor */
(PID.TID 0000.0001)                   F
(PID.TID 0000.0001)     ;
(PID.TID 0000.0001) interViscAr_pCell = /* account for partial-cell in interior vert. viscosity */
(PID.TID 0000.0001)                   F
(PID.TID 0000.0001)     ;
(PID.TID 0000.0001) interDiffKr_pCell = /* account for partial-cell in interior vert. diffusion */
(PID.TID 0000.0001)                   F
(PID.TID 0000.0001)     ;
(PID.TID 0000.0001) pCellMix_select = /* option to enhance mixing near surface & bottom */
(PID.TID 0000.0001)                       0
(PID.TID 0000.0001)     ;
(PID.TID 0000.0001) selectSigmaCoord = /* Hybrid-Sigma Vert. Coordinate option */
(PID.TID 0000.0001)                       0
(PID.TID 0000.0001)     ;
(PID.TID 0000.0001) rSigmaBnd = /* r/sigma transition ( units of r ==  m ) */
(PID.TID 0000.0001)                 1.234567000000000E+05
(PID.TID 0000.0001)     ;
(PID.TID 0000.0001) rkSign =   /* index orientation relative to vertical coordinate */
(PID.TID 0000.0001)                -1.000000000000000E+00
(PID.TID 0000.0001)     ;
(PID.TID 0000.0001) gravitySign = /* gravity orientation relative to vertical coordinate */
(PID.TID 0000.0001)                -1.000000000000000E+00
(PID.TID 0000.0001)     ;
(PID.TID 0000.0001) seaLev_Z =  /* reference height of sea-level [m] */
(PID.TID 0000.0001)                 0.000000000000000E+00
(PID.TID 0000.0001)     ;
(PID.TID 0000.0001) top_Pres =  /* reference pressure at the top [Pa] */
(PID.TID 0000.0001)                 0.000000000000000E+00
(PID.TID 0000.0001)     ;
(PID.TID 0000.0001) mass2rUnit = /* convert mass per unit area [kg/m2] to r-units [m] */
(PID.TID 0000.0001)                 1.000000000000000E-03
(PID.TID 0000.0001)     ;
(PID.TID 0000.0001) rUnit2mass = /* convert r-units [m] to mass per unit area [kg/m2] */
(PID.TID 0000.0001)                 1.000000000000000E+03
(PID.TID 0000.0001)     ;
(PID.TID 0000.0001) drC =   /* C spacing ( units of r ) */
(PID.TID 0000.0001)                 1.000000000000000E+01,      /* K =  1 */
(PID.TID 0000.0001)    54 @  2.000000000000000E+01,             /* K =  2: 55 */
(PID.TID 0000.0001)                 1.000000000000000E+01       /* K = 56 */
(PID.TID 0000.0001)     ;
(PID.TID 0000.0001) drF =   /* W spacing ( units of r ) */
(PID.TID 0000.0001)    55 @  2.000000000000000E+01              /* K =  1: 55 */
(PID.TID 0000.0001)     ;
(PID.TID 0000.0001) delX = /* U spacing ( m - cartesian, degrees - spherical ) */
(PID.TID 0000.0001)    62 @  1.000000000000000E+03              /* I =  1: 62 */
(PID.TID 0000.0001)     ;
(PID.TID 0000.0001) delY = /* V spacing ( m - cartesian, degrees - spherical ) */
(PID.TID 0000.0001)   102 @  1.000000000000000E+03              /* J =  1:102 */
(PID.TID 0000.0001)     ;
(PID.TID 0000.0001) xgOrigin = /* X-axis origin of West  edge (cartesian: m, lat-lon: deg) */
(PID.TID 0000.0001)                -1.000000000000000E+03
(PID.TID 0000.0001)     ;
(PID.TID 0000.0001) ygOrigin = /* Y-axis origin of South edge (cartesian: m, lat-lon: deg) */
(PID.TID 0000.0001)                -2.000000000000000E+03
(PID.TID 0000.0001)     ;
(PID.TID 0000.0001) rSphere =  /* Radius ( ignored - cartesian, m - spherical ) */
(PID.TID 0000.0001)                 6.370000000000000E+06
(PID.TID 0000.0001)     ;
(PID.TID 0000.0001) deepAtmosphere = /* Deep/Shallow Atmosphere flag (True/False) */
(PID.TID 0000.0001)                   F
(PID.TID 0000.0001)     ;
(PID.TID 0000.0001) xC =  /* xC(:,1,:,1) : P-point X coord ( deg. or m if cartesian) */
(PID.TID 0000.0001)                -5.000000000000000E+02,      /* I =  1 */
(PID.TID 0000.0001)                 5.000000000000000E+02,      /* I =  2 */
(PID.TID 0000.0001)                 1.500000000000000E+03,      /* I =  3 */
(PID.TID 0000.0001)                 2.500000000000000E+03,      /* I =  4 */
(PID.TID 0000.0001)                 3.500000000000000E+03,      /* I =  5 */
(PID.TID 0000.0001)                 4.500000000000000E+03,      /* I =  6 */
(PID.TID 0000.0001)                 5.500000000000000E+03,      /* I =  7 */
(PID.TID 0000.0001)                 6.500000000000000E+03,      /* I =  8 */
(PID.TID 0000.0001)                 7.500000000000000E+03,      /* I =  9 */
(PID.TID 0000.0001)                 8.500000000000000E+03,      /* I = 10 */
(PID.TID 0000.0001)                 9.500000000000000E+03,      /* I = 11 */
(PID.TID 0000.0001)                 1.050000000000000E+04,      /* I = 12 */
(PID.TID 0000.0001)                 1.150000000000000E+04,      /* I = 13 */
(PID.TID 0000.0001)                 1.250000000000000E+04,      /* I = 14 */
(PID.TID 0000.0001)                 1.350000000000000E+04,      /* I = 15 */
(PID.TID 0000.0001)                 1.450000000000000E+04,      /* I = 16 */
(PID.TID 0000.0001)                 1.550000000000000E+04,      /* I = 17 */
(PID.TID 0000.0001)                 1.650000000000000E+04,      /* I = 18 */
(PID.TID 0000.0001)                 1.750000000000000E+04,      /* I = 19 */
(PID.TID 0000.0001)                 1.850000000000000E+04,      /* I = 20 */
(PID.TID 0000.0001)                 1.950000000000000E+04,      /* I = 21 */
(PID.TID 0000.0001)                 2.050000000000000E+04,      /* I = 22 */
(PID.TID 0000.0001)                 2.150000000000000E+04,      /* I = 23 */
(PID.TID 0000.0001)                 2.250000000000000E+04,      /* I = 24 */
(PID.TID 0000.0001)                 2.350000000000000E+04,      /* I = 25 */
(PID.TID 0000.0001)                 2.450000000000000E+04,      /* I = 26 */
(PID.TID 0000.0001)                 2.550000000000000E+04,      /* I = 27 */
(PID.TID 0000.0001)                 2.650000000000000E+04,      /* I = 28 */
(PID.TID 0000.0001)                 2.750000000000000E+04,      /* I = 29 */
(PID.TID 0000.0001)                 2.850000000000000E+04,      /* I = 30 */
(PID.TID 0000.0001)                 2.950000000000000E+04       /* I = 31 */
(PID.TID 0000.0001)     ;
(PID.TID 0000.0001) yC =  /* yC(1,:,1,:) : P-point Y coord ( deg. or m if cartesian) */
(PID.TID 0000.0001)                -1.500000000000000E+03,      /* J =  1 */
(PID.TID 0000.0001)                -5.000000000000000E+02,      /* J =  2 */
(PID.TID 0000.0001)                 5.000000000000000E+02,      /* J =  3 */
(PID.TID 0000.0001)                 1.500000000000000E+03,      /* J =  4 */
(PID.TID 0000.0001)                 2.500000000000000E+03,      /* J =  5 */
(PID.TID 0000.0001)                 3.500000000000000E+03,      /* J =  6 */
(PID.TID 0000.0001)                 4.500000000000000E+03,      /* J =  7 */
(PID.TID 0000.0001)                 5.500000000000000E+03,      /* J =  8 */
(PID.TID 0000.0001)                 6.500000000000000E+03,      /* J =  9 */
(PID.TID 0000.0001)                 7.500000000000000E+03,      /* J = 10 */
(PID.TID 0000.0001)                 8.500000000000000E+03,      /* J = 11 */
(PID.TID 0000.0001)                 9.500000000000000E+03,      /* J = 12 */
(PID.TID 0000.0001)                 1.050000000000000E+04,      /* J = 13 */
(PID.TID 0000.0001)                 1.150000000000000E+04,      /* J = 14 */
(PID.TID 0000.0001)                 1.250000000000000E+04,      /* J = 15 */
(PID.TID 0000.0001)                 1.350000000000000E+04,      /* J = 16 */
(PID.TID 0000.0001)                 1.450000000000000E+04       /* J = 17 */
(PID.TID 0000.0001)     ;
(PID.TID 0000.0001) rcoord = /* P-point R coordinate (  units of r ) */
(PID.TID 0000.0001)                -1.000000000000000E+01,      /* K =  1 */
(PID.TID 0000.0001)                -3.000000000000000E+01,      /* K =  2 */
(PID.TID 0000.0001)                -5.000000000000000E+01,      /* K =  3 */
(PID.TID 0000.0001)                -7.000000000000000E+01,      /* K =  4 */
(PID.TID 0000.0001)                -9.000000000000000E+01,      /* K =  5 */
(PID.TID 0000.0001)                -1.100000000000000E+02,      /* K =  6 */
(PID.TID 0000.0001)                -1.300000000000000E+02,      /* K =  7 */
(PID.TID 0000.0001)                -1.500000000000000E+02,      /* K =  8 */
(PID.TID 0000.0001)                -1.700000000000000E+02,      /* K =  9 */
(PID.TID 0000.0001)                -1.900000000000000E+02,      /* K = 10 */
(PID.TID 0000.0001)                -2.100000000000000E+02,      /* K = 11 */
(PID.TID 0000.0001)                -2.300000000000000E+02,      /* K = 12 */
(PID.TID 0000.0001)                -2.500000000000000E+02,      /* K = 13 */
(PID.TID 0000.0001)                -2.700000000000000E+02,      /* K = 14 */
(PID.TID 0000.0001)                -2.900000000000000E+02,      /* K = 15 */
(PID.TID 0000.0001)                -3.100000000000000E+02,      /* K = 16 */
(PID.TID 0000.0001)                -3.300000000000000E+02,      /* K = 17 */
(PID.TID 0000.0001)                -3.500000000000000E+02,      /* K = 18 */
(PID.TID 0000.0001)                -3.700000000000000E+02,      /* K = 19 */
(PID.TID 0000.0001)                -3.900000000000000E+02,      /* K = 20 */
(PID.TID 0000.0001)                -4.100000000000000E+02,      /* K = 21 */
(PID.TID 0000.0001)                -4.300000000000000E+02,      /* K = 22 */
(PID.TID 0000.0001)                -4.500000000000000E+02,      /* K = 23 */
(PID.TID 0000.0001)                -4.700000000000000E+02,      /* K = 24 */
(PID.TID 0000.0001)                -4.900000000000000E+02,      /* K = 25 */
(PID.TID 0000.0001)                -5.100000000000000E+02,      /* K = 26 */
(PID.TID 0000.0001)                -5.300000000000000E+02,      /* K = 27 */
(PID.TID 0000.0001)                -5.500000000000000E+02,      /* K = 28 */
(PID.TID 0000.0001)                -5.700000000000000E+02,      /* K = 29 */
(PID.TID 0000.0001)                -5.900000000000000E+02,      /* K = 30 */
(PID.TID 0000.0001)                -6.100000000000000E+02,      /* K = 31 */
(PID.TID 0000.0001)                -6.300000000000000E+02,      /* K = 32 */
(PID.TID 0000.0001)                -6.500000000000000E+02,      /* K = 33 */
(PID.TID 0000.0001)                -6.700000000000000E+02,      /* K = 34 */
(PID.TID 0000.0001)                -6.900000000000000E+02,      /* K = 35 */
(PID.TID 0000.0001)                -7.100000000000000E+02,      /* K = 36 */
(PID.TID 0000.0001)                -7.300000000000000E+02,      /* K = 37 */
(PID.TID 0000.0001)                -7.500000000000000E+02,      /* K = 38 */
(PID.TID 0000.0001)                -7.700000000000000E+02,      /* K = 39 */
(PID.TID 0000.0001)                -7.900000000000000E+02,      /* K = 40 */
(PID.TID 0000.0001)                -8.100000000000000E+02,      /* K = 41 */
(PID.TID 0000.0001)                -8.300000000000000E+02,      /* K = 42 */
(PID.TID 0000.0001)                -8.500000000000000E+02,      /* K = 43 */
(PID.TID 0000.0001)                -8.700000000000000E+02,      /* K = 44 */
(PID.TID 0000.0001)                -8.900000000000000E+02,      /* K = 45 */
(PID.TID 0000.0001)                -9.100000000000000E+02,      /* K = 46 */
(PID.TID 0000.0001)                -9.300000000000000E+02,      /* K = 47 */
(PID.TID 0000.0001)                -9.500000000000000E+02,      /* K = 48 */
(PID.TID 0000.0001)                -9.700000000000000E+02,      /* K = 49 */
(PID.TID 0000.0001)                -9.900000000000000E+02,      /* K = 50 */
(PID.TID 0000.0001)                -1.010000000000000E+03,      /* K = 51 */
(PID.TID 0000.0001)                -1.030000000000000E+03,      /* K = 52 */
(PID.TID 0000.0001)                -1.050000000000000E+03,      /* K = 53 */
(PID.TID 0000.0001)                -1.070000000000000E+03,      /* K = 54 */
(PID.TID 0000.0001)                -1.090000000000000E+03       /* K = 55 */
(PID.TID 0000.0001)     ;
(PID.TID 0000.0001) rF =   /* W-Interf. R coordinate (  units of r ) */
(PID.TID 0000.0001)                 0.000000000000000E+00,      /* K =  1 */
(PID.TID 0000.0001)                -2.000000000000000E+01,      /* K =  2 */
(PID.TID 0000.0001)                -4.000000000000000E+01,      /* K =  3 */
(PID.TID 0000.0001)                -6.000000000000000E+01,      /* K =  4 */
(PID.TID 0000.0001)                -8.000000000000000E+01,      /* K =  5 */
(PID.TID 0000.0001)                -1.000000000000000E+02,      /* K =  6 */
(PID.TID 0000.0001)                -1.200000000000000E+02,      /* K =  7 */
(PID.TID 0000.0001)                -1.400000000000000E+02,      /* K =  8 */
(PID.TID 0000.0001)                -1.600000000000000E+02,      /* K =  9 */
(PID.TID 0000.0001)                -1.800000000000000E+02,      /* K = 10 */
(PID.TID 0000.0001)                -2.000000000000000E+02,      /* K = 11 */
(PID.TID 0000.0001)                -2.200000000000000E+02,      /* K = 12 */
(PID.TID 0000.0001)                -2.400000000000000E+02,      /* K = 13 */
(PID.TID 0000.0001)                -2.600000000000000E+02,      /* K = 14 */
(PID.TID 0000.0001)                -2.800000000000000E+02,      /* K = 15 */
(PID.TID 0000.0001)                -3.000000000000000E+02,      /* K = 16 */
(PID.TID 0000.0001)                -3.200000000000000E+02,      /* K = 17 */
(PID.TID 0000.0001)                -3.400000000000000E+02,      /* K = 18 */
(PID.TID 0000.0001)                -3.600000000000000E+02,      /* K = 19 */
(PID.TID 0000.0001)                -3.800000000000000E+02,      /* K = 20 */
(PID.TID 0000.0001)                -4.000000000000000E+02,      /* K = 21 */
(PID.TID 0000.0001)                -4.200000000000000E+02,      /* K = 22 */
[...]
(PID.TID 0000.0001) %MON dynstat_uvel_max             =   2.1340957170184E-02
(PID.TID 0000.0001) %MON dynstat_uvel_min             =  -9.5354245808213E-02
(PID.TID 0000.0001) %MON dynstat_uvel_mean            =   9.9433922750985E-09
(PID.TID 0000.0001) %MON dynstat_uvel_sd              =   2.8843204353000E-03
(PID.TID 0000.0001) %MON dynstat_uvel_del2            =   4.7193727793765E-06
(PID.TID 0000.0001) %MON dynstat_vvel_max             =   4.5447482790882E-02
(PID.TID 0000.0001) %MON dynstat_vvel_min             =  -3.2448780106463E-02
(PID.TID 0000.0001) %MON dynstat_vvel_mean            =   2.5258048507164E-07
(PID.TID 0000.0001) %MON dynstat_vvel_sd              =   1.2023258267088E-03
(PID.TID 0000.0001) %MON dynstat_vvel_del2            =   2.9548077621012E-06
(PID.TID 0000.0001) %MON dynstat_wvel_max             =   3.1595806643322E-03
(PID.TID 0000.0001) %MON dynstat_wvel_min             =  -3.0794306866190E-03
(PID.TID 0000.0001) %MON dynstat_wvel_mean            =   7.0743041520188E-10
(PID.TID 0000.0001) %MON dynstat_wvel_sd              =   5.4952386087442E-05
(PID.TID 0000.0001) %MON dynstat_wvel_del2            =   1.9567066620796E-07
(PID.TID 0000.0001) %MON dynstat_theta_max            =   1.2000000000000E+00
(PID.TID 0000.0001) %MON dynstat_theta_min            =  -1.0000000000000E+00
(PID.TID 0000.0001) %MON dynstat_theta_mean           =   5.6445559569668E-01
(PID.TID 0000.0001) %MON dynstat_theta_sd             =   8.4864579973026E-01
(PID.TID 0000.0001) %MON dynstat_theta_del2           =   8.0717867009992E-06
(PID.TID 0000.0001) %MON dynstat_salt_max             =   3.4700000000000E+01
(PID.TID 0000.0001) %MON dynstat_salt_min             =   3.4000000000000E+01
(PID.TID 0000.0001) %MON dynstat_salt_mean            =   3.4497696354761E+01
(PID.TID 0000.0001) %MON dynstat_salt_sd              =   2.7000306904509E-01
(PID.TID 0000.0001) %MON dynstat_salt_del2            =   3.2043369806734E-06
(PID.TID 0000.0001) %MON advcfl_uvel_max              =   9.5354245808213E-03
(PID.TID 0000.0001) %MON advcfl_vvel_max              =   4.5447482790882E-03
(PID.TID 0000.0001) %MON advcfl_wvel_max              =   1.5797903321661E-02
(PID.TID 0000.0001) %MON advcfl_W_hf_max              =   1.5797903321661E-02
(PID.TID 0000.0001) %MON pe_b_mean                    =  -6.8021982007871E-01
(PID.TID 0000.0001) %MON ke_max                       =   4.3342796498891E-03
(PID.TID 0000.0001) %MON ke_mean                      =   4.8042307228264E-06
(PID.TID 0000.0001) %MON ke_vol                       =   4.6183413313913E+12
(PID.TID 0000.0001) // =======================================================
(PID.TID 0000.0001) // End MONITOR dynamic field statistics
(PID.TID 0000.0001) // =======================================================
(PID.TID 0000.0001) // =======================================================
(PID.TID 0000.0001) // Begin OBCS MONITOR field statistics
(PID.TID 0000.0001) // =======================================================
(PID.TID 0000.0001) %MON obc_N_vVel_max               =   1.7296550496150E-07
(PID.TID 0000.0001) %MON obc_N_vVel_min               =   1.7296550496149E-07
(PID.TID 0000.0001) %MON obc_N_vVel_mean              =   1.7296550496150E-07
(PID.TID 0000.0001) %MON obc_N_vVel_sd                =  -1.3442189824966E-27
(PID.TID 0000.0001) %MON obc_N_vVel_Int               =   1.1415723327459E+01
(PID.TID 0000.0001) // =======================================================
(PID.TID 0000.0001) // End OBCS MONITOR field statistics
(PID.TID 0000.0001) // =======================================================
(PID.TID 0000.0001) %CHECKPOINT      1728 0000001728
 cg2d: Sum(rhs),rhsMax =   3.00168869471164E+00  4.53032194644190E+02
(PID.TID 0000.0001)      cg2d_init_res =   8.56977894726642E-06
(PID.TID 0000.0001)      cg2d_iters(min,last) =      -1      81
(PID.TID 0000.0001)      cg2d_last_res =   8.41688499453303E-12
(PID.TID 0000.0001) // =======================================================
(PID.TID 0000.0001) // Begin MONITOR dynamic field statistics
(PID.TID 0000.0001) // =======================================================
(PID.TID 0000.0001) %MON time_tsnumber                =                  1729
(PID.TID 0000.0001) %MON time_secondsf                =   1.7290000000000E+05
(PID.TID 0000.0001) %MON dynstat_eta_max              =   5.8005341931557E+00
(PID.TID 0000.0001) %MON dynstat_eta_min              =  -1.4163164497561E+01
(PID.TID 0000.0001) %MON dynstat_eta_mean             =  -2.5182622537109E+00
(PID.TID 0000.0001) %MON dynstat_eta_sd               =   4.9393996561614E+00
(PID.TID 0000.0001) %MON dynstat_eta_del2             =   1.9060499945738E-01
(PID.TID 0000.0001) %MON dynstat_uvel_max             =   2.1373682829767E-02
(PID.TID 0000.0001) %MON dynstat_uvel_min             =  -9.5499479151169E-02
(PID.TID 0000.0001) %MON dynstat_uvel_mean            =   9.9604527472267E-09
(PID.TID 0000.0001) %MON dynstat_uvel_sd              =   2.8894515260880E-03
(PID.TID 0000.0001) %MON dynstat_uvel_del2            =   4.7288857614003E-06
(PID.TID 0000.0001) %MON dynstat_vvel_max             =   4.5487705937215E-02
(PID.TID 0000.0001) %MON dynstat_vvel_min             =  -3.2513883297479E-02
(PID.TID 0000.0001) %MON dynstat_vvel_mean            =   2.5393566091517E-07
(PID.TID 0000.0001) %MON dynstat_vvel_sd              =   1.2043894229320E-03
(PID.TID 0000.0001) %MON dynstat_vvel_del2            =   2.9591795548208E-06
(PID.TID 0000.0001) %MON dynstat_wvel_max             =   3.1626661237705E-03
(PID.TID 0000.0001) %MON dynstat_wvel_min             =  -3.0783266365340E-03
(PID.TID 0000.0001) %MON dynstat_wvel_mean            =   7.0721599800349E-10
(PID.TID 0000.0001) %MON dynstat_wvel_sd              =   5.5017457451275E-05
(PID.TID 0000.0001) %MON dynstat_wvel_del2            =   1.9589309999753E-07
(PID.TID 0000.0001) %MON dynstat_theta_max            =   1.2000000000000E+00
(PID.TID 0000.0001) %MON dynstat_theta_min            =  -1.0000000000000E+00
(PID.TID 0000.0001) %MON dynstat_theta_mean           =   5.6445379373300E-01
(PID.TID 0000.0001) %MON dynstat_theta_sd             =   8.4864506918839E-01
(PID.TID 0000.0001) %MON dynstat_theta_del2           =   8.0831811455929E-06
(PID.TID 0000.0001) %MON dynstat_salt_max             =   3.4700000000000E+01
(PID.TID 0000.0001) %MON dynstat_salt_min             =   3.4000000000000E+01
(PID.TID 0000.0001) %MON dynstat_salt_mean            =   3.4497695633926E+01
(PID.TID 0000.0001) %MON dynstat_salt_sd              =   2.7000280293113E-01
(PID.TID 0000.0001) %MON dynstat_salt_del2            =   3.2088943908923E-06
(PID.TID 0000.0001) %MON advcfl_uvel_max              =   9.5499479151169E-03
(PID.TID 0000.0001) %MON advcfl_vvel_max              =   4.5487705937215E-03
(PID.TID 0000.0001) %MON advcfl_wvel_max              =   1.5813330618852E-02
(PID.TID 0000.0001) %MON advcfl_W_hf_max              =   1.5813330618852E-02
(PID.TID 0000.0001) %MON pe_b_mean                    =  -6.8021496268040E-01
(PID.TID 0000.0001) %MON ke_max                       =   4.3471648841337E-03
(PID.TID 0000.0001) %MON ke_mean                      =   4.8212483151997E-06
(PID.TID 0000.0001) %MON ke_vol                       =   4.6183414267386E+12
(PID.TID 0000.0001) // =======================================================
(PID.TID 0000.0001) // End MONITOR dynamic field statistics
(PID.TID 0000.0001) // =======================================================
(PID.TID 0000.0001) // =======================================================
(PID.TID 0000.0001) // Begin OBCS MONITOR field statistics
(PID.TID 0000.0001) // =======================================================
(PID.TID 0000.0001) %MON obc_N_vVel_max               =   1.7425489334545E-07
(PID.TID 0000.0001) %MON obc_N_vVel_min               =   1.7425489334545E-07
(PID.TID 0000.0001) %MON obc_N_vVel_mean              =   1.7425489334545E-07
(PID.TID 0000.0001) %MON obc_N_vVel_sd                =   4.1355174313732E-14
(PID.TID 0000.0001) %MON obc_N_vVel_Int               =   1.1500822960800E+01
(PID.TID 0000.0001) // =======================================================
(PID.TID 0000.0001) // End OBCS MONITOR field statistics
(PID.TID 0000.0001) // =======================================================
(PID.TID 0000.0001) %CHECKPOINT      1729 ckptA
(PID.TID 0000.0001)   Seconds in section "ALL                    [THE_MODEL_MAIN]":
(PID.TID 0000.0001)           User time:   16.987873077392578
(PID.TID 0000.0001)         System time:  0.16681998968124390
(PID.TID 0000.0001)     Wall clock time:   17.168278932571411
(PID.TID 0000.0001)          No. starts:           1
(PID.TID 0000.0001)           No. stops:           1
(PID.TID 0000.0001)   Seconds in section "INITIALISE_FIXED       [THE_MODEL_MAIN]":
(PID.TID 0000.0001)           User time:   2.8395999222993851E-002
(PID.TID 0000.0001)         System time:   9.4600021839141846E-004
(PID.TID 0000.0001)     Wall clock time:   2.9495954513549805E-002
(PID.TID 0000.0001)          No. starts:           1
(PID.TID 0000.0001)           No. stops:           1
(PID.TID 0000.0001)   Seconds in section "THE_MAIN_LOOP          [THE_MODEL_MAIN]":
(PID.TID 0000.0001)           User time:   16.959472263231874
(PID.TID 0000.0001)         System time:  0.16586098074913025
(PID.TID 0000.0001)     Wall clock time:   17.138772010803223
(PID.TID 0000.0001)          No. starts:           1
(PID.TID 0000.0001)           No. stops:           1
(PID.TID 0000.0001)   Seconds in section "INITIALISE_VARIA    [THE_MAIN_LOOP]":
(PID.TID 0000.0001)           User time:   7.7780019491910934E-003
(PID.TID 0000.0001)         System time:   1.8644005060195923E-002
(PID.TID 0000.0001)     Wall clock time:   2.6423215866088867E-002
(PID.TID 0000.0001)          No. starts:           1
(PID.TID 0000.0001)           No. stops:           1
(PID.TID 0000.0001)   Seconds in section "MAIN LOOP           [THE_MAIN_LOOP]":
(PID.TID 0000.0001)           User time:   16.951691355556250
(PID.TID 0000.0001)         System time:  0.14720898866653442
(PID.TID 0000.0001)     Wall clock time:   17.112338066101074
(PID.TID 0000.0001)          No. starts:           1
(PID.TID 0000.0001)           No. stops:           1
(PID.TID 0000.0001)   Seconds in section "MAIN_DO_LOOP        [THE_MAIN_LOOP]":
(PID.TID 0000.0001)           User time:   16.948757182806730
(PID.TID 0000.0001)         System time:  0.14715898036956787
(PID.TID 0000.0001)     Wall clock time:   17.109327793121338
(PID.TID 0000.0001)          No. starts:         865
(PID.TID 0000.0001)           No. stops:         865
(PID.TID 0000.0001)   Seconds in section "FORWARD_STEP        [MAIN_DO_LOOP]":
(PID.TID 0000.0001)           User time:   16.942509163171053
(PID.TID 0000.0001)         System time:  0.14703099429607391
(PID.TID 0000.0001)     Wall clock time:   17.103014469146729
(PID.TID 0000.0001)          No. starts:         865
(PID.TID 0000.0001)           No. stops:         865
(PID.TID 0000.0001)   Seconds in section "SHELFICE_REMESHING     [FORWARD_STEP]":
(PID.TID 0000.0001)           User time:   3.9039917290210724E-002
(PID.TID 0000.0001)         System time:   1.3360232114791870E-003
(PID.TID 0000.0001)     Wall clock time:   4.0416717529296875E-002
(PID.TID 0000.0001)          No. starts:         865
(PID.TID 0000.0001)           No. stops:         865
(PID.TID 0000.0001)   Seconds in section "DO_STATEVARS_DIAGS  [FORWARD_STEP]":
(PID.TID 0000.0001)           User time:  0.38800466433167458
(PID.TID 0000.0001)         System time:   5.4050683975219727E-003
(PID.TID 0000.0001)     Wall clock time:  0.39397954940795898
(PID.TID 0000.0001)          No. starts:        2595
(PID.TID 0000.0001)           No. stops:        2595
(PID.TID 0000.0001)   Seconds in section "LOAD_FIELDS_DRIVER  [FORWARD_STEP]":
(PID.TID 0000.0001)           User time:   9.2781521379947662E-003
(PID.TID 0000.0001)         System time:   1.7204880714416504E-004
(PID.TID 0000.0001)     Wall clock time:   9.4277858734130859E-003
(PID.TID 0000.0001)          No. starts:         865
(PID.TID 0000.0001)           No. stops:         865
(PID.TID 0000.0001)   Seconds in section "EXTERNAL_FLDS_LOAD [LOAD_FLDS_DRIVER]":
(PID.TID 0000.0001)           User time:   3.1479485332965851E-003
(PID.TID 0000.0001)         System time:   5.9947371482849121E-005
(PID.TID 0000.0001)     Wall clock time:   3.2517910003662109E-003
(PID.TID 0000.0001)          No. starts:         865
(PID.TID 0000.0001)           No. stops:         865
(PID.TID 0000.0001)   Seconds in section "DO_ATMOSPHERIC_PHYS [FORWARD_STEP]":
(PID.TID 0000.0001)           User time:   3.0615925788879395E-003
(PID.TID 0000.0001)         System time:   5.5998563766479492E-005
(PID.TID 0000.0001)     Wall clock time:   3.0338764190673828E-003
(PID.TID 0000.0001)          No. starts:         865
(PID.TID 0000.0001)           No. stops:         865
(PID.TID 0000.0001)   Seconds in section "DO_OCEANIC_PHYS     [FORWARD_STEP]":
(PID.TID 0000.0001)           User time:   1.0135109163820744
(PID.TID 0000.0001)         System time:   2.1676927804946899E-002
(PID.TID 0000.0001)     Wall clock time:   1.0358164310455322
(PID.TID 0000.0001)          No. starts:         865
(PID.TID 0000.0001)           No. stops:         865
(PID.TID 0000.0001)   Seconds in section "SHELFICE_THERMODYNAMICS [DO_OCEANIC_PHYS]":
(PID.TID 0000.0001)           User time:   9.1463945806026459E-002
(PID.TID 0000.0001)         System time:   1.8060058355331421E-003
(PID.TID 0000.0001)     Wall clock time:   9.3354225158691406E-002
(PID.TID 0000.0001)          No. starts:         865
(PID.TID 0000.0001)           No. stops:         865
(PID.TID 0000.0001)   Seconds in section "DYNAMICS            [FORWARD_STEP]":
(PID.TID 0000.0001)           User time:   3.3689634837210178
(PID.TID 0000.0001)         System time:   2.6078984141349792E-002
(PID.TID 0000.0001)     Wall clock time:   3.3961336612701416
(PID.TID 0000.0001)          No. starts:         865
(PID.TID 0000.0001)           No. stops:         865
(PID.TID 0000.0001)   Seconds in section "UPDATE_SURF_DR      [FORWARD_STEP]":
(PID.TID 0000.0001)           User time:   2.5375355035066605E-002
(PID.TID 0000.0001)         System time:   6.3017010688781738E-005
(PID.TID 0000.0001)     Wall clock time:   2.5452375411987305E-002
(PID.TID 0000.0001)          No. starts:         865
(PID.TID 0000.0001)           No. stops:         865
(PID.TID 0000.0001)   Seconds in section "UPDATE_CG2D         [FORWARD_STEP]":
(PID.TID 0000.0001)           User time:   9.8963931202888489E-002
(PID.TID 0000.0001)         System time:   2.4703145027160645E-004
(PID.TID 0000.0001)     Wall clock time:   9.9321126937866211E-002
(PID.TID 0000.0001)          No. starts:         865
(PID.TID 0000.0001)           No. stops:         865
(PID.TID 0000.0001)   Seconds in section "SOLVE_FOR_PRESSURE  [FORWARD_STEP]":
(PID.TID 0000.0001)           User time:   1.5474870838224888
(PID.TID 0000.0001)         System time:   1.3957053422927856E-002
(PID.TID 0000.0001)     Wall clock time:   1.5618433952331543
(PID.TID 0000.0001)          No. starts:         865
(PID.TID 0000.0001)           No. stops:         865
(PID.TID 0000.0001)   Seconds in section "MOM_CORRECTION_STEP [FORWARD_STEP]":
(PID.TID 0000.0001)           User time:  0.21019599959254265
(PID.TID 0000.0001)         System time:   1.8010437488555908E-003
(PID.TID 0000.0001)     Wall clock time:  0.21225619316101074
(PID.TID 0000.0001)          No. starts:         865
(PID.TID 0000.0001)           No. stops:         865
(PID.TID 0000.0001)   Seconds in section "INTEGR_CONTINUITY   [FORWARD_STEP]":
(PID.TID 0000.0001)           User time:  0.28720417246222496
(PID.TID 0000.0001)         System time:   2.7330070734024048E-003
(PID.TID 0000.0001)     Wall clock time:  0.29025626182556152
(PID.TID 0000.0001)          No. starts:         865
(PID.TID 0000.0001)           No. stops:         865
(PID.TID 0000.0001)   Seconds in section "CALC_SURF_DR      [FORWARD_STEP]":
(PID.TID 0000.0001)           User time:   5.4300002753734589E-002
(PID.TID 0000.0001)         System time:   5.7499110698699951E-004
(PID.TID 0000.0001)     Wall clock time:   5.4967164993286133E-002
(PID.TID 0000.0001)          No. starts:         865
(PID.TID 0000.0001)           No. stops:         865
(PID.TID 0000.0001)   Seconds in section "BLOCKING_EXCHANGES  [FORWARD_STEP]":
(PID.TID 0000.0001)           User time:  0.59931164607405663
(PID.TID 0000.0001)         System time:   3.5030096769332886E-003
(PID.TID 0000.0001)     Wall clock time:  0.60364603996276855
(PID.TID 0000.0001)          No. starts:        1730
(PID.TID 0000.0001)           No. stops:        1730
(PID.TID 0000.0001)   Seconds in section "THERMODYNAMICS      [FORWARD_STEP]":
(PID.TID 0000.0001)           User time:   5.9853522442281246
(PID.TID 0000.0001)         System time:   1.1159971356391907E-002
(PID.TID 0000.0001)     Wall clock time:   5.9981300830841064
(PID.TID 0000.0001)          No. starts:         865
(PID.TID 0000.0001)           No. stops:         865
(PID.TID 0000.0001)   Seconds in section "TRC_CORRECTION_STEP [FORWARD_STEP]":
(PID.TID 0000.0001)           User time:   1.5499191731214523
(PID.TID 0000.0001)         System time:   2.1610707044601440E-003
(PID.TID 0000.0001)     Wall clock time:   1.5528869628906250
(PID.TID 0000.0001)          No. starts:         865
(PID.TID 0000.0001)           No. stops:         865
(PID.TID 0000.0001)   Seconds in section "MONITOR             [FORWARD_STEP]":
(PID.TID 0000.0001)           User time:   1.6000100970268250
(PID.TID 0000.0001)         System time:   2.2186055779457092E-002
(PID.TID 0000.0001)     Wall clock time:   1.6231153011322021
(PID.TID 0000.0001)          No. starts:         865
(PID.TID 0000.0001)           No. stops:         865
(PID.TID 0000.0001)   Seconds in section "DO_THE_MODEL_IO     [FORWARD_STEP]":
(PID.TID 0000.0001)           User time:   6.5599191933870316E-002
(PID.TID 0000.0001)         System time:   9.7769200801849365E-003
(PID.TID 0000.0001)     Wall clock time:   8.8558912277221680E-002
(PID.TID 0000.0001)          No. starts:         865
(PID.TID 0000.0001)           No. stops:         865
(PID.TID 0000.0001)   Seconds in section "DO_WRITE_PICKUP     [FORWARD_STEP]":
(PID.TID 0000.0001)           User time:   1.7356790602207184E-002
(PID.TID 0000.0001)         System time:   2.3278936743736267E-002
(PID.TID 0000.0001)     Wall clock time:   4.0675640106201172E-002
(PID.TID 0000.0001)          No. starts:         865
(PID.TID 0000.0001)           No. stops:         865
(PID.TID 0000.0001) // ======================================================
(PID.TID 0000.0001) // Tile <-> Tile communication statistics
(PID.TID 0000.0001) // ======================================================
(PID.TID 0000.0001) // o Tile number: 000001
(PID.TID 0000.0001) //         No. X exchanges =              0
(PID.TID 0000.0001) //            Max. X spins =              0
(PID.TID 0000.0001) //            Min. X spins =     1000000000
(PID.TID 0000.0001) //          Total. X spins =              0
(PID.TID 0000.0001) //            Avg. X spins =       0.00E+00
(PID.TID 0000.0001) //         No. Y exchanges =              0
(PID.TID 0000.0001) //            Max. Y spins =              0
(PID.TID 0000.0001) //            Min. Y spins =     1000000000
(PID.TID 0000.0001) //          Total. Y spins =              0
(PID.TID 0000.0001) //            Avg. Y spins =       0.00E+00
(PID.TID 0000.0001) // o Thread number: 000001
(PID.TID 0000.0001) //            No. barriers =         524742
(PID.TID 0000.0001) //      Max. barrier spins =              1
(PID.TID 0000.0001) //      Min. barrier spins =              1
(PID.TID 0000.0001) //     Total barrier spins =         524742
(PID.TID 0000.0001) //      Avg. barrier spins =       1.00E+00
PROGRAM MAIN: Execution ended Normally
